  5
 
 C          0.0000000000        0.0000000000        0.0000000000
 H          0.5540000000        0.8000000000        0.4960000000
 H          0.6830000000       -0.8130000000       -0.2540000000
 H         -0.7780000000       -0.3730000000        0.6690000000
 H         -0.4590000000        0.3870000000       -0.9120000000
