  11
 
 C         -3.6351499273       -0.0071480659        0.0001102882
 C         -2.1956695270        0.4964519431        0.0003565715
 C         -1.2309181166       -0.6717994399       -0.0001183523
 I          0.8318773631       -0.0198191633        0.0001517988
 H         -4.3256356563        0.8322608872        0.0005391752
 H         -3.8307459076       -0.6124124120       -0.8827077437
 H         -3.8307395243       -0.6133198236        0.8823069593
 H         -2.0253070314        1.1167956612        0.8831405385
 H         -2.0252774950        1.1174946406       -0.8819332314
 H         -1.3528854402       -1.2879442841       -0.8876976387
 H         -1.3525675871       -1.2883905528        0.8872022805
          11
        -13.80399248
 C         -2.7146775473       -0.9080886789        0.1687196372
 C         -2.3125188120        0.4467680744       -0.3968830900
 C         -1.1190489412        1.0524743130        0.3133727334
 I          0.7078164676       -0.0629979106       -0.0122344638
 H         -1.9115040645       -1.6311048803        0.0422040724
 H         -2.9423280954       -0.8282842368        1.2301618745
 H         -3.5956076962       -1.2855504804       -0.3444523199
 H         -3.1456149658        1.1482038218       -0.2844241377
 H         -2.1019474712        0.3532757364       -1.4647329238
 H         -1.2671667401        1.0725551361        1.3904160317
 H         -0.9129443801        2.0582659101       -0.0441603543
