 xtb: 6.7.1 (edcfbbe)
          04112511413D

 14 13  0     0  0            999 V2000
   -1.3626   -0.3515   -0.4325 C   0  0  0  0  0  0  0  0  0  0  0  0
   -0.0016   -0.0574    0.2102 C   0  0  0  0  0  0  0  0  0  0  0  0
    1.1411   -0.7681   -0.5253 C   0  0  0  0  0  0  0  0  0  0  0  0
    2.3723   -0.5991    0.1356 O   0  0  0  0  0  0  0  0  0  0  0  0
    0.2326    1.3369    0.2676 O   0  0  0  0  0  0  0  0  0  0  0  0
   -2.4222    0.1969    0.3143 O   0  0  0  0  0  0  0  0  0  0  0  0
   -1.5369   -1.4275   -0.4713 H   0  0  0  0  0  0  0  0  0  0  0  0
   -1.3774    0.0464   -1.4582 H   0  0  0  0  0  0  0  0  0  0  0  0
   -0.0172   -0.3838    1.2553 H   0  0  0  0  0  0  0  0  0  0  0  0
    1.2090   -0.3851   -1.5546 H   0  0  0  0  0  0  0  0  0  0  0  0
    0.9555   -1.8422   -0.5625 H   0  0  0  0  0  0  0  0  0  0  0  0
    2.4576    0.3332    0.3891 H   0  0  0  0  0  0  0  0  0  0  0  0
    0.2575    1.6921   -0.6343 H   0  0  0  0  0  0  0  0  0  0  0  0
   -2.1842    1.1042    0.5616 H   0  0  0  0  0  0  0  0  0  0  0  0
  1  2  1  0  0  0  0
  2  3  1  0  0  0  0
  3  4  1  0  0  0  0
  2  5  1  0  0  0  0
  1  6  1  0  0  0  0
  1  7  1  0  0  0  0
  1  8  1  0  0  0  0
  2  9  1  0  0  0  0
  3 10  1  0  0  0  0
  3 11  1  0  0  0  0
  4 12  1  0  0  0  0
  5 13  1  0  0  0  0
  6 14  1  0  0  0  0
M  END
