 xtb: 6.7.1 (edcfbbe)
          04112511493D

 17 16  0     0  0            999 V2000
   -3.1184    0.6567    0.1330 C   0  0  0  0  0  0  0  0  0  0  0  0
   -1.7264    0.1589    0.5001 C   0  0  0  0  0  0  0  0  0  0  0  0
   -0.7941    0.1698   -0.7211 C   0  0  0  0  0  0  0  0  0  0  0  0
    0.5541   -0.3612   -0.3174 C   0  0  0  0  0  0  0  0  0  0  0  0
    0.8675   -1.5341   -0.3240 O   0  0  0  0  0  0  0  0  0  0  0  0
    1.3541    0.6151    0.0914 O   0  0  0  0  0  0  0  0  0  0  0  0
    2.6646    0.2926    0.5678 C   0  0  0  0  0  0  0  0  0  0  0  0
   -3.0706    1.6737   -0.2473 H   0  0  0  0  0  0  0  0  0  0  0  0
   -3.5609    0.0224   -0.6307 H   0  0  0  0  0  0  0  0  0  0  0  0
   -3.7626    0.6442    1.0078 H   0  0  0  0  0  0  0  0  0  0  0  0
   -1.7870   -0.8592    0.8901 H   0  0  0  0  0  0  0  0  0  0  0  0
   -1.3004    0.7950    1.2782 H   0  0  0  0  0  0  0  0  0  0  0  0
   -0.6820    1.1882   -1.0902 H   0  0  0  0  0  0  0  0  0  0  0  0
   -1.2043   -0.4724   -1.5000 H   0  0  0  0  0  0  0  0  0  0  0  0
    3.3888    0.7270   -0.1193 H   0  0  0  0  0  0  0  0  0  0  0  0
    2.7860   -0.7902    0.6124 H   0  0  0  0  0  0  0  0  0  0  0  0
    2.7691    0.7335    1.5568 H   0  0  0  0  0  0  0  0  0  0  0  0
  1  2  1  0  0  0  0
  2  3  1  0  0  0  0
  3  4  1  0  0  0  0
  4  5  2  0  0  0  0
  4  6  1  0  0  0  0
  6  7  1  0  0  0  0
  1  8  1  0  0  0  0
  1  9  1  0  0  0  0
  1 10  1  0  0  0  0
  2 11  1  0  0  0  0
  2 12  1  0  0  0  0
  3 13  1  0  0  0  0
  3 14  1  0  0  0  0
  7 15  1  0  0  0  0
  7 16  1  0  0  0  0
  7 17  1  0  0  0  0
M  END
