 xtb: 6.7.1 (edcfbbe)
          04112512383D

 19 19  0     0  0            999 V2000
    1.4674   -2.4421   -0.9623 C   0  0  0  0  0  0  0  0  0  0  0  0
    1.0899   -1.7684    0.2401 O   0  0  0  0  0  0  0  0  0  0  0  0
    0.7244   -0.4579    0.0865 C   0  0  0  0  0  0  0  0  0  0  0  0
    1.6742    0.5649    0.0408 C   0  0  0  0  0  0  0  0  0  0  0  0
    1.2888    1.8933   -0.0416 C   0  0  0  0  0  0  0  0  0  0  0  0
   -0.0530    2.2253   -0.0715 C   0  0  0  0  0  0  0  0  0  0  0  0
   -1.0070    1.2225   -0.0094 C   0  0  0  0  0  0  0  0  0  0  0  0
   -0.6318   -0.1156    0.0633 C   0  0  0  0  0  0  0  0  0  0  0  0
   -1.6420   -1.2211    0.1033 C   0  0  0  0  0  0  0  0  0  0  0  0
   -1.7055   -2.0959   -0.7300 O   0  0  0  0  0  0  0  0  0  0  0  0
   -2.4476   -1.1338    1.1385 O   0  0  0  0  0  0  0  0  0  0  0  0
   -2.6812    1.6395   -0.0652 Cl  0  0  0  0  0  0  0  0  0  0  0  0
    3.3530    0.1594    0.1189 Cl  0  0  0  0  0  0  0  0  0  0  0  0
    2.2549   -1.8990   -1.4884 H   0  0  0  0  0  0  0  0  0  0  0  0
    0.5967   -2.5627   -1.6116 H   0  0  0  0  0  0  0  0  0  0  0  0
    1.8326   -3.4140   -0.6424 H   0  0  0  0  0  0  0  0  0  0  0  0
    2.0415    2.6633   -0.0779 H   0  0  0  0  0  0  0  0  0  0  0  0
   -0.3606    3.2554   -0.1372 H   0  0  0  0  0  0  0  0  0  0  0  0
   -3.1035   -1.8596    1.1765 H   0  0  0  0  0  0  0  0  0  0  0  0
  1  2  1  0  0  0  0
  2  3  1  0  0  0  0
  3  4  4  0  0  0  0
  4  5  4  0  0  0  0
  5  6  4  0  0  0  0
  6  7  4  0  0  0  0
  3  8  4  0  0  0  0
  7  8  4  0  0  0  0
  8  9  1  0  0  0  0
  9 10  2  0  0  0  0
  9 11  4  0  0  0  0
  7 12  1  0  0  0  0
  4 13  1  0  0  0  0
  1 14  1  0  0  0  0
  1 15  1  0  0  0  0
  1 16  1  0  0  0  0
  5 17  1  0  0  0  0
  6 18  1  0  0  0  0
 11 19  1  0  0  0  0
M  END
