  14
 
 C         -2.4167692561       -0.1089263485       -0.0010672397
 C         -1.8165195798       -1.3569308855        0.0106493890
 C         -0.4349217078       -1.4506489513        0.0039161947
 C          0.3298688961       -0.3018263446       -0.0166576311
 C         -0.2526661417        0.9707769402       -0.0323077956
 C         -1.6479600195        1.0372769324       -0.0206358641
 N          0.5141362710        2.1035124457       -0.1229972850
 Cl         2.0654349078       -0.4338537250       -0.0142294427
 H         -3.4932498075       -0.0272598748        0.0079035089
 H         -2.4153329185       -2.2537265144        0.0269490419
 H          0.0511518977       -2.4139750284        0.0170805699
 H         -2.1181240473        2.0098330161       -0.0297498112
 H          1.4896822516        2.0022342586        0.1095111324
 H          0.0843968949        2.9720402011        0.1454931336
          14
        -23.37022399
 C         -2.4114503366       -0.0700259982       -0.0054335023
 C         -1.8392125523       -1.3310739618        0.0063894170
 C         -0.4599793510       -1.4553655872        0.0088825940
 C          0.3300989466       -0.3236555580        0.0018177332
 C         -0.2238154403        0.9616138816       -0.0075698255
 C         -1.6172833167        1.0589125696       -0.0140299157
 N          0.5684843033        2.0788217969        0.0541021713
 Cl         2.0625465610       -0.4947626291       -0.0060221168
 H         -3.4858912907        0.0355698611       -0.0106759277
 H         -2.4578601749       -2.2144125313        0.0116528809
 H          0.0046521105       -2.4292654021        0.0137008616
 H         -2.0658481167        2.0416436751       -0.0232254499
 H          1.5401522233        1.9495080861       -0.1789428093
 H          0.1567193971        2.9498044255       -0.2340388809
