 14

C      1.885000    -1.036000    -0.112000
C      2.921000    -1.631000     0.608000
C      2.878000    -1.652000     2.002000
C      1.800000    -1.079000     2.676000
C      0.764000    -0.484000     1.955000
C      0.807000    -0.463000     0.561000
N     -0.342000     0.105000     2.609000
Cl     1.787000    -1.126000     4.402000
H      1.919000    -1.019000    -1.198000
H      3.760000    -2.078000     0.083000
H      3.694000    -2.119000     2.549000
H      0.005000    -0.003000    -0.012000
H     -0.402000     0.052000     3.604000
H     -1.087000     0.479000     2.059000
