19
 xtb: 6.7.1 (edcfbbe)
C           -2.56028885042833        0.37601526757183        0.26277473403070
C           -1.95743285578321       -0.73246881056958        0.85289848315696
C           -0.65748991237892       -1.09166718391382        0.50205972694477
C            0.06023061241065       -0.35251782434305       -0.44311129565324
C           -0.55579647232405        0.75938737026887       -1.02861846758911
C           -1.85450057772914        1.12103565043975       -0.68111021204136
C            1.48119023606739       -0.70763834321460       -0.78642280996214
C            2.50136992238720        0.14040400667570       -0.02519976159683
O            2.38553281312087        0.00486043957498        1.40173163374112
H           -3.57408474055489        0.65520270705432        0.53219182839175
H           -2.49997464459248       -1.32060564504300        1.58728849185140
H           -0.19372295787678       -1.96000231719634        0.96296290716214
H           -0.01155230987950        1.34414010424783       -1.76625928533733
H           -2.31822383208094        1.98405331950555       -1.14973851063890
H            1.66881735501832       -1.76632259105887       -0.56965457869662
H            1.66227040657064       -0.55216416371129       -1.85714593197892
H            3.51520679993707       -0.12933054997053       -0.35172709446475
H            2.34361500631102        1.20302673143195       -0.23787076018650
H            2.49822626606451       -0.93216759526865        1.61107430680465
