  24
 
 C         -3.8431721363       -0.5917686752       -0.1061460577
 N         -2.6632036212        0.2372641590       -0.1930919893
 C         -2.8709853894        1.6577561160       -0.3452755908
 C         -1.4362447903       -0.3661688464       -0.1030415502
 O         -1.3202892943       -1.5740039245       -0.0443247411
 N         -0.3756704880        0.5122346694       -0.0869669406
 C          0.9875050109        0.2146410129       -0.0490509210
 C          1.8729501340        1.2725307087        0.1559468178
 C          3.2357371799        1.0502940159        0.1867370032
 C          3.7369961654       -0.2285178966        0.0115538951
 C          2.8601670343       -1.2798280151       -0.1949433631
 C          1.4940599261       -1.0692715954       -0.2277472748
 H         -4.4372948999       -0.5153317434       -1.0199953815
 H         -4.4567769286       -0.2966686905        0.7487258130
 H         -3.5168057091       -1.6215598996        0.0225861299
 H         -2.6293822834        2.2111147929        0.5700491982
 H         -3.9224397371        1.8270853471       -0.5689317857
 H         -2.2851646933        2.0592976090       -1.1766027083
 H         -0.5829450124        1.4934177789        0.0125937749
 H          1.4867864045        2.2743982593        0.2925728274
 H          3.9080710139        1.8802559436        0.3490213687
 H          4.8022420857       -0.4022794882        0.0363107063
 H          3.2420186024       -2.2804905173       -0.3342483851
 H          0.8142658223       -1.8896724753       -0.3817231115
          24
        -35.32163921
 C         -2.9072308744       -1.6398620605       -0.0091782438
 N         -2.6769652673       -0.2141844102       -0.0004903775
 C         -3.8432722200        0.6387273810        0.0015608191
 C         -1.4403355805        0.3770172511        0.0028558701
 O         -1.3105965656        1.5851227358        0.0074975990
 N         -0.3893506815       -0.5115411166        0.0009305486
 C          0.9788938959       -0.2364003053        0.0008860506
 C          1.8521173992       -1.3241660177        0.0063029553
 C          3.2189533714       -1.1265050625        0.0048716334
 C          3.7369424378        0.1576237785       -0.0020904154
 C          2.8723796349        1.2388436101       -0.0073393801
 C          1.5022139903        1.0531809362       -0.0059191890
 H         -2.4874221318       -2.1139779743       -0.9025262444
 H         -3.9812135546       -1.8120083760       -0.0164870671
 H         -2.4982196239       -2.1234006184        0.8842442837
 H         -3.4993720955        1.6708368549        0.0074994205
 H         -4.4518365396        0.4565717301        0.8907028148
 H         -4.4482645078        0.4657568162       -0.8918402021
 H         -0.6073622920       -1.4952318464        0.0046654060
 H          1.4530914340       -2.3303256324        0.0113124940
 H          3.8813302826       -1.9800440318        0.0086903567
 H          4.8054214722        0.3121548820       -0.0034698982
 H          3.2671764091        2.2441306797       -0.0124463109
 H          0.8318803480        1.8955066124       -0.0095494217
