  24
 
 C          0.6780000000       -0.7210000000       -0.2300000000
 N          1.8320000000        0.0810000000       -0.6180000000
 C          1.5870000000        1.4500000000       -1.0680000000
 C          3.1090000000       -0.5200000000       -0.5330000000
 O          3.2570000000       -1.6810000000       -0.1460000000
 N          4.1540000000        0.3100000000       -0.9470000000
 C          5.3830000000       -0.0750000000       -1.5360000000
 C          6.3210000000        0.8950000000       -1.8900000000
 C          7.5330000000        0.5160000000       -2.4690000000
 C          7.8060000000       -0.8330000000       -2.6940000000
 C          6.8680000000       -1.8030000000       -2.3410000000
 C          5.6570000000       -1.4240000000       -1.7620000000
 H          0.2880000000       -1.2620000000       -1.0960000000
 H         -0.1110000000       -0.0790000000        0.1690000000
 H          0.9630000000       -1.4450000000        0.5380000000
 H          1.6210000000        2.1130000000       -0.2100000000
 H          0.6090000000        1.4990000000       -1.5360000000
 H          2.3540000000        1.7290000000       -1.7840000000
 H          4.0100000000        1.3130000000       -0.8900000000
 H          6.1200000000        1.9490000000       -1.7170000000
 H          8.2630000000        1.2710000000       -2.7440000000
 H          8.7490000000       -1.1280000000       -3.1460000000
 H          7.0810000000       -2.8540000000       -2.5170000000
 H          4.9340000000       -2.1900000000       -1.4900000000
