14
 xtb: 6.7.1 (edcfbbe)
C            2.04009895569958       -0.28829369471214       -0.47198115897302
O            1.28786404394902        0.50960140848311        0.44570505192441
C           -0.01580977020762       -0.02286716632337        0.70525757953708
C           -0.96593379342311        0.10372397392521       -0.47835860438745
N           -2.31537680484751       -0.30663389680739       -0.05210477264535
H            3.05825804980545        0.10864358052665       -0.48001862274407
H            1.63401587578965       -0.23711927317693       -1.49043638435313
H            2.06533579102300       -1.33877020804080       -0.14850468713212
H            0.06483418559262       -1.07588094707750        1.01741482792493
H           -0.40777418241996        0.55596360589934        1.55028147646632
H           -0.91733963540607        1.13775048998010       -0.85617963314282
H           -0.64722435952205       -0.55720923026692       -1.29056791298042
H           -2.92904070529407       -0.28001689274294       -0.86026708637986
H           -2.67633691124796        0.40081666636626        0.58246902737450
