  13
 
 C          0.9920000000        0.0880000000       -0.4550000000
 C          1.2280000000        1.5170000000       -0.9220000000
 C          2.6190000000        1.7220000000       -1.5110000000
 N          2.8340000000        3.0730000000       -1.9500000000
 H         -0.0140000000       -0.0270000000       -0.0380000000
 H          1.0900000000       -0.6050000000       -1.2970000000
 H          1.7180000000       -0.2070000000        0.3090000000
 H          1.1030000000        2.1910000000       -0.0670000000
 H          0.4640000000        1.7860000000       -1.6610000000
 H          3.3810000000        1.5060000000       -0.7560000000
 H          2.7900000000        1.0610000000       -2.3660000000
 H          3.1170000000        3.7700000000       -1.2780000000
 H          2.5080000000        3.3530000000       -2.8620000000
