 xtb: 6.7.1 (edcfbbe)
          04112511203D

 17 16  0     0  0            999 V2000
    1.6986    1.2754   -0.1247 C   0  0  0  0  0  0  0  0  0  0  0  0
    1.4438   -0.2100    0.1229 C   0  0  0  0  0  0  0  0  0  0  0  0
    1.4492   -0.9975   -1.1857 C   0  0  0  0  0  0  0  0  0  0  0  0
    0.1631   -0.4488    0.9332 C   0  0  0  0  0  0  0  0  0  0  0  0
   -1.1621   -0.0425    0.3429 C   0  0  0  0  0  0  0  0  0  0  0  0
   -2.2114   -0.2311    0.9303 O   0  0  0  0  0  0  0  0  0  0  0  0
   -1.1292    0.5315   -0.8443 O   0  0  0  0  0  0  0  0  0  0  0  0
    2.6659    1.4111   -0.6017 H   0  0  0  0  0  0  0  0  0  0  0  0
    1.6992    1.8248    0.8140 H   0  0  0  0  0  0  0  0  0  0  0  0
    0.9352    1.6944   -0.7731 H   0  0  0  0  0  0  0  0  0  0  0  0
    2.2626   -0.5901    0.7452 H   0  0  0  0  0  0  0  0  0  0  0  0
    1.2710   -2.0538   -0.9970 H   0  0  0  0  0  0  0  0  0  0  0  0
    0.6816   -0.6297   -1.8597 H   0  0  0  0  0  0  0  0  0  0  0  0
    2.4138   -0.8950   -1.6763 H   0  0  0  0  0  0  0  0  0  0  0  0
    0.2314    0.0720    1.8924 H   0  0  0  0  0  0  0  0  0  0  0  0
    0.0684   -1.5121    1.1701 H   0  0  0  0  0  0  0  0  0  0  0  0
   -2.0216    0.7697   -1.1631 H   0  0  0  0  0  0  0  0  0  0  0  0
  1  2  1  0  0  0  0
  2  3  1  0  0  0  0
  2  4  1  0  0  0  0
  4  5  1  0  0  0  0
  5  6  2  0  0  0  0
  5  7  1  0  0  0  0
  1  8  1  0  0  0  0
  1  9  1  0  0  0  0
  1 10  1  0  0  0  0
  2 11  1  0  0  0  0
  3 12  1  0  0  0  0
  3 13  1  0  0  0  0
  3 14  1  0  0  0  0
  4 15  1  0  0  0  0
  4 16  1  0  0  0  0
  7 17  1  0  0  0  0
M  END
