 xtb: 6.7.1 (edcfbbe)
          04112512023D

 20 19  0     0  0            999 V2000
    1.9524    0.4792    0.7884 C   0  0  0  0  0  0  0  0  0  0  0  0
    1.5049   -0.4223   -0.3568 C   0  0  0  0  0  0  0  0  0  0  0  0
    0.2578    0.0501   -1.1107 C   0  0  0  0  0  0  0  0  0  0  0  0
   -1.0979    0.0015   -0.3820 C   0  0  0  0  0  0  0  0  0  0  0  0
   -1.3260    1.1873    0.5547 C   0  0  0  0  0  0  0  0  0  0  0  0
   -1.3144   -1.3157    0.3598 C   0  0  0  0  0  0  0  0  0  0  0  0
    1.2893    0.3943    1.6443 H   0  0  0  0  0  0  0  0  0  0  0  0
    2.9519    0.1972    1.1133 H   0  0  0  0  0  0  0  0  0  0  0  0
    1.9765    1.5188    0.4699 H   0  0  0  0  0  0  0  0  0  0  0  0
    2.3167   -0.4703   -1.0880 H   0  0  0  0  0  0  0  0  0  0  0  0
    1.3501   -1.4355    0.0159 H   0  0  0  0  0  0  0  0  0  0  0  0
    0.4251    1.0730   -1.4571 H   0  0  0  0  0  0  0  0  0  0  0  0
    0.1699   -0.5804   -2.0002 H   0  0  0  0  0  0  0  0  0  0  0  0
   -1.8611    0.0685   -1.1684 H   0  0  0  0  0  0  0  0  0  0  0  0
   -2.3578    1.1915    0.9004 H   0  0  0  0  0  0  0  0  0  0  0  0
   -1.1364    2.1253    0.0381 H   0  0  0  0  0  0  0  0  0  0  0  0
   -0.6806    1.1375    1.4257 H   0  0  0  0  0  0  0  0  0  0  0  0
   -1.1322   -2.1613   -0.2996 H   0  0  0  0  0  0  0  0  0  0  0  0
   -0.6510   -1.3918    1.2174 H   0  0  0  0  0  0  0  0  0  0  0  0
   -2.3391   -1.3767    0.7197 H   0  0  0  0  0  0  0  0  0  0  0  0
  1  2  1  0  0  0  0
  2  3  1  0  0  0  0
  3  4  1  0  0  0  0
  4  5  1  0  0  0  0
  4  6  1  0  0  0  0
  1  7  1  0  0  0  0
  1  8  1  0  0  0  0
  1  9  1  0  0  0  0
  2 10  1  0  0  0  0
  2 11  1  0  0  0  0
  3 12  1  0  0  0  0
  3 13  1  0  0  0  0
  4 14  1  0  0  0  0
  5 15  1  0  0  0  0
  5 16  1  0  0  0  0
  5 17  1  0  0  0  0
  6 18  1  0  0  0  0
  6 19  1  0  0  0  0
  6 20  1  0  0  0  0
M  END
