  24
 
 C         -1.8840000000       -1.7020000000        0.9270000000
 C         -0.4970000000       -2.0340000000        0.4940000000
 C          0.3500000000       -1.0280000000        0.0390000000
 C          1.6480000000       -1.3370000000       -0.3660000000
 C          2.1170000000       -2.6600000000       -0.3220000000
 C          3.4210000000       -2.9900000000       -0.7270000000
 C          3.8690000000       -4.3100000000       -0.6760000000
 C          3.0230000000       -5.3170000000       -0.2210000000
 C          1.7240000000       -5.0070000000        0.1850000000
 C          1.2560000000       -3.6840000000        0.1400000000
 C         -0.0480000000       -3.3540000000        0.5450000000
 C          5.2570000000       -4.6430000000       -1.1090000000
 H         -1.8970000000       -1.4670000000        1.9960000000
 H         -2.2720000000       -0.8410000000        0.3710000000
 H         -2.5640000000       -2.5400000000        0.7410000000
 H          0.0090000000        0.0040000000       -0.0020000000
 H          2.2920000000       -0.5340000000       -0.7190000000
 H          4.0930000000       -2.2120000000       -1.0850000000
 H          3.3650000000       -6.3470000000       -0.1780000000
 H          1.0800000000       -5.8100000000        0.5360000000
 H         -0.7200000000       -4.1320000000        0.9030000000
 H          5.9480000000       -4.5770000000       -0.2600000000
 H          5.3120000000       -5.6570000000       -1.5250000000
 H          5.6040000000       -3.9580000000       -1.8940000000
