22
 xtb: 6.7.1 (edcfbbe)
C           -3.26888561349280        0.88443794067758        0.26775388034907
C           -3.02702377220952       -0.31031094524153        0.93946251773092
C           -1.86681441736861       -1.03692734738205        0.67629267194557
C           -0.94421196353910       -0.57668277848421       -0.26253422865155
C           -1.19288028916888        0.62304362885050       -0.93515039184050
C           -2.34824174452571        1.35039747174302       -0.67086766056747
C            0.31873981500447       -1.35483953810677       -0.54139160458015
N            1.51487950290044       -0.59666537372403       -0.16637613495305
C            1.89065957662214       -0.26413822831391        1.11675583334274
C            2.97111455638129        0.56699021319123        0.98091273485007
N            3.26144923387123        0.76889409633397       -0.35491051310386
C            2.35484380041028        0.05999829555045       -1.00993315012815
H           -4.17085851468388        1.45228075032870        0.47295014479729
H           -3.73917605681297       -0.67723474646868        1.67196879438025
H           -1.67522526339036       -1.96728001567862        1.20368574996061
H           -0.47470525369608        0.98746679744813       -1.66550218856099
H           -2.53416832609783        2.28016736945801       -1.19944657761867
H            0.31331836940231       -2.29819832616261        0.01117780419945
H            0.40734918345163       -1.58407841211122       -1.60746177149487
H            1.36779620243338       -0.64831876731098        1.98002315287405
H            3.55656482762706        1.02488192988057        1.76567684467554
H            2.26726294793358       -0.02645281589178       -2.08492534128478
