24
 xtb: 6.7.1 (edcfbbe)
C           -2.22419583550430        0.58425694776333       -0.94662400931171
C           -2.13945881964117       -0.66758628857447       -0.07555207608237
C           -1.20950332619076       -0.57509058506612        1.14074233656957
C            0.28170141337045       -0.30422346134084        0.87902523894090
C            0.91803947023140       -1.09685541377426       -0.27745481180676
C            2.18101428633371       -0.29732591095364       -0.60440681239164
C            1.67056260837667        1.15002425524878       -0.57606856746329
C            0.67011990654911        1.18179667636008        0.60024074784080
H           -2.97056401559624        0.45213099078940       -1.73773774550480
H           -2.51737277079809        1.45965690597929       -0.35577788998294
H           -1.26964218326333        0.81141110429200       -1.43175052234593
H           -3.14474251046433       -0.90572619578813        0.29540459896294
H           -1.84340352407451       -1.52126926679973       -0.69835284822627
H           -1.58598756179625        0.20111666868018        1.82197743010747
H           -1.29523130706538       -1.52331515165791        1.68777931408747
H            0.81215302170186       -0.60253851162225        1.79282098984204
H            1.11364526859061       -2.14156737710122       -0.01177012282668
H            0.25927364687853       -1.09345009024097       -1.15464846879119
H            2.93251240500481       -0.44820045712631        0.18174384961402
H            2.63545417671442       -0.57333719596250       -1.56151725137922
H            2.47347599571279        1.88674894021799       -0.47284200957895
H            1.15023214919880        1.36280885029796       -1.51810650849003
H            1.13430477395504        1.61566855808271        1.49226434435045
H           -0.20401163957086        1.79596869869416        0.37034204581570
