18
 xtb: 6.7.1 (edcfbbe)
C           -2.75665738744594       -0.05397059649745        0.04861842098281
C           -1.32783519947767       -0.20495248172390       -0.46415445213322
C           -0.29663127022612        0.24895237455181        0.58000131611209
C            1.13025587781327        0.15506164342742        0.10720375544533
C            1.90099162836004        1.24056448191916       -0.02158475354763
C            1.63829773266136       -1.22130380473897       -0.21260154727971
H           -2.97512641391456        0.98895637772718        0.30390635345712
H           -2.91357178478567       -0.65817444856964        0.94923256339176
H           -3.48536690441373       -0.37564502075958       -0.70237897123899
H           -1.14646830464869       -1.25138364181779       -0.73469780246814
H           -1.19458530133678        0.38675833381613       -1.37876350101717
H           -0.51672343632917        1.28188680545453        0.87487694236908
H           -0.41579784003790       -0.37828855486728        1.47569371934871
H            2.93156361465054        1.16602412270463       -0.36031744656980
H            1.52289055435227        2.23257417678391        0.21349307014769
H            1.09976582957429       -1.65218666969594       -1.06469220290449
H            2.70420760273044       -1.21081232679876       -0.45323335716909
H            1.47330259948156       -1.89869602688053        0.63413088459727
