 xtb: 6.7.1 (edcfbbe)
          04112511103D

 18 17  0     0  0            999 V2000
    2.2110   -0.8545    0.4671 C   0  0  0  0  0  0  0  0  0  0  0  0
    1.4459    0.4035    0.0672 C   0  0  0  0  0  0  0  0  0  0  0  0
    0.3463    0.1343   -0.9709 C   0  0  0  0  0  0  0  0  0  0  0  0
   -1.0805    0.0084   -0.4078 C   0  0  0  0  0  0  0  0  0  0  0  0
   -1.7436   -0.2634   -1.2386 H   0  0  0  0  0  0  0  0  0  0  0  0
   -1.2130   -1.0450    0.6908 C   0  0  0  0  0  0  0  0  0  0  0  0
   -1.5831    1.2639    0.0215 O   0  0  0  0  0  0  0  0  0  0  0  0
    2.6971   -1.2908   -0.4025 H   0  0  0  0  0  0  0  0  0  0  0  0
    1.5491   -1.5999    0.8978 H   0  0  0  0  0  0  0  0  0  0  0  0
    2.9776   -0.6113    1.1994 H   0  0  0  0  0  0  0  0  0  0  0  0
    1.0187    0.8646    0.9600 H   0  0  0  0  0  0  0  0  0  0  0  0
    2.1578    1.1189   -0.3492 H   0  0  0  0  0  0  0  0  0  0  0  0
    0.3204    0.9520   -1.6945 H   0  0  0  0  0  0  0  0  0  0  0  0
    0.5787   -0.7806   -1.5169 H   0  0  0  0  0  0  0  0  0  0  0  0
   -0.6018   -0.7871    1.5517 H   0  0  0  0  0  0  0  0  0  0  0  0
   -2.2505   -1.1043    1.0116 H   0  0  0  0  0  0  0  0  0  0  0  0
   -0.9071   -2.0155    0.3120 H   0  0  0  0  0  0  0  0  0  0  0  0
   -1.0413    1.5813    0.7576 H   0  0  0  0  0  0  0  0  0  0  0  0
  1  2  1  0  0  0  0
  2  3  1  0  0  0  0
  3  4  1  0  0  0  0
  4  5  1  0  0  0  0
  4  6  1  0  0  0  0
  4  7  1  0  0  0  0
  1  8  1  0  0  0  0
  1  9  1  0  0  0  0
  1 10  1  0  0  0  0
  2 11  1  0  0  0  0
  2 12  1  0  0  0  0
  3 13  1  0  0  0  0
  3 14  1  0  0  0  0
  6 15  1  0  0  0  0
  6 16  1  0  0  0  0
  6 17  1  0  0  0  0
  7 18  1  0  0  0  0
M  END
