12
CONF6
C 0.2123276523 -0.1718181920 -0.4648072668
H 0.0635200339 0.0351820913 -1.5296135979
C 1.5413003905 0.4449008864 -0.0084678927
F 2.5599291634 -0.0221411616 -0.7483443453
F 1.8036837245 0.1909863609 1.2848853317
F 1.4893198396 1.7817888169 -0.1667946444
O -0.7796477579 0.3772072998 0.3444375027
C -2.0596509819 0.4260231150 -0.2107269249
F -2.6909127628 1.4456413647 0.4107295694
F -2.7371244606 -0.7139246665 0.1068948909
Cl 0.3228821056 -1.9869061283 -0.2822630443
H -2.0646357065 0.5671936738 -1.2965343762
12
CONF1
C 0.0642993338 -0.2171381550 -0.2157226379
H -0.2999876272 -0.0139588010 -1.2266435549
C 1.4441522321 0.4318770889 -0.0462983868
F 2.3120032775 -0.0390767670 -0.9568033184
F 1.9588839084 0.2239734183 1.1774175131
F 1.3291605197 1.7625747050 -0.2288375590
O -0.7582116760 0.3055587854 0.7932672826
C -2.0541580599 0.6312658812 0.4139499991
F -2.6712399671 -0.4357860558 -0.1678012121
F -2.0391412532 1.6207746043 -0.5268474822
Cl 0.2384310661 -2.0184972687 -0.0471259495
H -2.5997277429 0.9568961550 1.3007605476
12
CONF5
C 0.1640578616 -0.3665185755 -0.2765298554
H -0.0948135334 -0.4878796978 -1.3328907290
C 1.4985784780 0.3825607102 -0.1649318090
F 2.4723085446 -0.2777639827 -0.8114437580
F 1.8771299420 0.5522878722 1.1132046418
F 1.3744361723 1.5999621139 -0.7273360647
O -0.7689453953 0.3819940861 0.4425204858
C -2.0978677010 0.1868368795 0.0591976468
F -2.3325627661 0.8359460935 -1.1186697091
F -2.8371820586 0.7904996652 1.0105581306
Cl 0.3677324188 -2.0394765549 0.4242430379
H -2.3809270760 -0.8660444677 -0.0439583414
