21
 xtb: 6.7.1 (edcfbbe)
C            1.88198247505412       -0.77930503696331       -0.82638409759888
C            1.20237199055177       -0.12326631963270        0.36507754830793
H            0.93346690962872       -0.89153104300091        1.10711980866396
C           -0.05133953474032        0.67431609682911       -0.00408542021067
C           -1.38040768016473       -0.06798122311695        0.19906835115949
C           -2.54484369977231        0.85812060503144       -0.15311599902420
C           -1.47475091532999       -1.36465470167318       -0.60570820365956
O            2.12581155421519        0.80925417191016        0.99196001767932
H            2.19359370003899       -0.01309630736790       -1.54492520000590
H            2.76680437881769       -1.34265831743956       -0.50875929175031
H            1.20664906178043       -1.47122447331820       -1.33693593975106
H           -0.07238194276946        1.57466823083864        0.62146800524082
H            0.02021721762186        1.01378516389320       -1.04729560329172
H           -1.45431733124687       -0.32440656096266        1.26596641407375
H           -2.51355034975783        1.12677963058629       -1.21633164066851
H           -2.50860444995971        1.78574576398419        0.42879895896431
H           -3.50754930364549        0.37304651260000        0.04078501994926
H           -2.45913401125790       -1.82704883230461       -0.47239533217304
H           -1.33865226676305       -1.16878512024176       -1.67654822674090
H           -0.72323327536369       -2.09748652359965       -0.29583954335495
H            2.94372834854388        0.32412090130098        1.16459130558406
