 xtb: 6.7.1 (edcfbbe)
          04112511533D

 12 11  0     0  0            999 V2000
   -1.9592    1.4117    1.1860 C   0  0  0  0  0  0  0  0  0  0  0  0
   -1.6785    0.0328    0.8559 O   0  0  0  0  0  0  0  0  0  0  0  0
   -0.8447   -0.1999   -0.1568 C   0  0  0  0  0  0  0  0  0  0  0  0
    0.5445    0.4696   -0.0967 C   0  0  0  0  0  0  0  0  0  0  0  0
    1.2635    0.1181    1.4829 Cl  0  0  0  0  0  0  0  0  0  0  0  0
    1.5626   -0.1642   -1.4067 Cl  0  0  0  0  0  0  0  0  0  0  0  0
   -0.7101   -1.5432   -0.2558 F   0  0  0  0  0  0  0  0  0  0  0  0
   -1.4171    0.1726   -1.3645 F   0  0  0  0  0  0  0  0  0  0  0  0
   -1.1061    1.8596    1.6939 H   0  0  0  0  0  0  0  0  0  0  0  0
   -2.8095    1.3513    1.8585 H   0  0  0  0  0  0  0  0  0  0  0  0
   -2.2255    1.9688    0.2884 H   0  0  0  0  0  0  0  0  0  0  0  0
    0.4599    1.5509   -0.2234 H   0  0  0  0  0  0  0  0  0  0  0  0
  1  2  1  0  0  0  0
  2  3  1  0  0  0  0
  3  4  1  0  0  0  0
  4  5  1  0  0  0  0
  4  6  1  0  0  0  0
  3  7  1  0  0  0  0
  3  8  1  0  0  0  0
  1  9  1  0  0  0  0
  1 10  1  0  0  0  0
  1 11  1  0  0  0  0
  4 12  1  0  0  0  0
M  END
