 xtb: 6.7.1 (edcfbbe)
          04072507453D

 21 20  0     0  0            999 V2000
    2.1842   -0.9250   -0.6166 C   0  0  0  0  0  0  0  0  0  0  0  0
    1.2023   -0.1418    0.2503 C   0  0  0  0  0  0  0  0  0  0  0  0
    1.7756    1.2261    0.6302 C   0  0  0  0  0  0  0  0  0  0  0  0
    0.0001   -0.0012   -0.5006 O   0  0  0  0  0  0  0  0  0  0  0  0
   -1.2021    0.1414    0.2500 C   0  0  0  0  0  0  0  0  0  0  0  0
   -2.1826    0.9261   -0.6171 C   0  0  0  0  0  0  0  0  0  0  0  0
   -1.7776   -1.2256    0.6298 C   0  0  0  0  0  0  0  0  0  0  0  0
    2.3678   -0.3790   -1.5376 H   0  0  0  0  0  0  0  0  0  0  0  0
    3.1211   -1.0645   -0.0864 H   0  0  0  0  0  0  0  0  0  0  0  0
    1.7651   -1.8951   -0.8685 H   0  0  0  0  0  0  0  0  0  0  0  0
    0.9941   -0.7127    1.1682 H   0  0  0  0  0  0  0  0  0  0  0  0
    1.0630    1.7897    1.2282 H   0  0  0  0  0  0  0  0  0  0  0  0
    1.9942    1.7923   -0.2714 H   0  0  0  0  0  0  0  0  0  0  0  0
    2.6885    1.0983    1.2040 H   0  0  0  0  0  0  0  0  0  0  0  0
   -0.9933    0.7119    1.1679 H   0  0  0  0  0  0  0  0  0  0  0  0
   -3.1201    1.0654   -0.0880 H   0  0  0  0  0  0  0  0  0  0  0  0
   -1.7626    1.8964   -0.8674 H   0  0  0  0  0  0  0  0  0  0  0  0
   -2.3652    0.3813   -1.5391 H   0  0  0  0  0  0  0  0  0  0  0  0
   -2.6902   -1.0965    1.2038 H   0  0  0  0  0  0  0  0  0  0  0  0
   -1.0657   -1.7903    1.2276 H   0  0  0  0  0  0  0  0  0  0  0  0
   -1.9972   -1.7914   -0.2718 H   0  0  0  0  0  0  0  0  0  0  0  0
  1  2  1  0  0  0  0
  2  3  1  0  0  0  0
  2  4  1  0  0  0  0
  4  5  1  0  0  0  0
  5  6  1  0  0  0  0
  5  7  1  0  0  0  0
  1  8  1  0  0  0  0
  1  9  1  0  0  0  0
  1 10  1  0  0  0  0
  2 11  1  0  0  0  0
  3 12  1  0  0  0  0
  3 13  1  0  0  0  0
  3 14  1  0  0  0  0
  5 15  1  0  0  0  0
  6 16  1  0  0  0  0
  6 17  1  0  0  0  0
  6 18  1  0  0  0  0
  7 19  1  0  0  0  0
  7 20  1  0  0  0  0
  7 21  1  0  0  0  0
M  END
