 xtb: 6.7.1 (edcfbbe)
          04112512313D

 18 17  0     0  0            999 V2000
   -1.4442    1.2262   -0.4953 C   0  0  0  0  0  0  0  0  0  0  0  0
   -1.2442    0.3428    0.7317 C   0  0  0  0  0  0  0  0  0  0  0  0
   -0.0923   -0.6675    0.6240 C   0  0  0  0  0  0  0  0  0  0  0  0
   -0.0836   -1.2362    1.5618 H   0  0  0  0  0  0  0  0  0  0  0  0
   -0.2937   -1.6556   -0.5243 C   0  0  0  0  0  0  0  0  0  0  0  0
    1.2886    0.0099    0.5488 C   0  0  0  0  0  0  0  0  0  0  0  0
    1.5827    0.6687   -0.6633 O   0  0  0  0  0  0  0  0  0  0  0  0
   -0.5222    1.7429   -0.7472 H   0  0  0  0  0  0  0  0  0  0  0  0
   -1.7630    0.6393   -1.3527 H   0  0  0  0  0  0  0  0  0  0  0  0
   -2.2121    1.9692   -0.2919 H   0  0  0  0  0  0  0  0  0  0  0  0
   -2.1667   -0.2096    0.9278 H   0  0  0  0  0  0  0  0  0  0  0  0
   -1.0544    0.9817    1.5977 H   0  0  0  0  0  0  0  0  0  0  0  0
   -0.3100   -1.1452   -1.4833 H   0  0  0  0  0  0  0  0  0  0  0  0
   -1.2403   -2.1761   -0.4026 H   0  0  0  0  0  0  0  0  0  0  0  0
    0.5047   -2.3946   -0.5312 H   0  0  0  0  0  0  0  0  0  0  0  0
    2.0623   -0.7443    0.7533 H   0  0  0  0  0  0  0  0  0  0  0  0
    1.3576    0.7822    1.3193 H   0  0  0  0  0  0  0  0  0  0  0  0
    1.6042    0.0134   -1.3737 H   0  0  0  0  0  0  0  0  0  0  0  0
  1  2  1  0  0  0  0
  2  3  1  0  0  0  0
  3  4  1  0  0  0  0
  3  5  1  0  0  0  0
  3  6  1  0  0  0  0
  6  7  1  0  0  0  0
  1  8  1  0  0  0  0
  1  9  1  0  0  0  0
  1 10  1  0  0  0  0
  2 11  1  0  0  0  0
  2 12  1  0  0  0  0
  5 13  1  0  0  0  0
  5 14  1  0  0  0  0
  5 15  1  0  0  0  0
  6 16  1  0  0  0  0
  6 17  1  0  0  0  0
  7 18  1  0  0  0  0
M  END
