 xtb: 6.7.1 (edcfbbe)
          04112511243D

 20 19  0     0  0            999 V2000
   -0.1630   -1.9407    0.9964 C   0  0  0  0  0  0  0  0  0  0  0  0
    0.0395   -1.3227   -0.3761 C   0  0  0  0  0  0  0  0  0  0  0  0
    1.3514   -0.7604   -0.4889 O   0  0  0  0  0  0  0  0  0  0  0  0
    1.6582    0.4389    0.0240 C   0  0  0  0  0  0  0  0  0  0  0  0
    0.8607    1.1721    0.5644 O   0  0  0  0  0  0  0  0  0  0  0  0
    3.1114    0.7356   -0.1694 C   0  0  0  0  0  0  0  0  0  0  0  0
   -0.9141   -0.3761   -0.8295 O   0  0  0  0  0  0  0  0  0  0  0  0
   -1.7041    0.3830   -0.0421 C   0  0  0  0  0  0  0  0  0  0  0  0
   -1.8977    0.1962    1.1321 O   0  0  0  0  0  0  0  0  0  0  0  0
   -2.3422    1.4631   -0.8592 C   0  0  0  0  0  0  0  0  0  0  0  0
    0.5848   -2.7178    1.1264 H   0  0  0  0  0  0  0  0  0  0  0  0
   -1.1571   -2.3716    1.0634 H   0  0  0  0  0  0  0  0  0  0  0  0
   -0.0530   -1.1927    1.7774 H   0  0  0  0  0  0  0  0  0  0  0  0
    0.0379   -2.0973   -1.1538 H   0  0  0  0  0  0  0  0  0  0  0  0
    3.2707    1.8088   -0.1478 H   0  0  0  0  0  0  0  0  0  0  0  0
    3.6622    0.2805    0.6514 H   0  0  0  0  0  0  0  0  0  0  0  0
    3.4571    0.3000   -1.1009 H   0  0  0  0  0  0  0  0  0  0  0  0
   -2.4362    1.1461   -1.8923 H   0  0  0  0  0  0  0  0  0  0  0  0
   -3.3038    1.7248   -0.4302 H   0  0  0  0  0  0  0  0  0  0  0  0
   -1.6898    2.3336   -0.8139 H   0  0  0  0  0  0  0  0  0  0  0  0
  1  2  1  0  0  0  0
  2  3  1  0  0  0  0
  3  4  1  0  0  0  0
  4  5  2  0  0  0  0
  4  6  1  0  0  0  0
  2  7  1  0  0  0  0
  7  8  1  0  0  0  0
  8  9  2  0  0  0  0
  8 10  1  0  0  0  0
  1 11  1  0  0  0  0
  1 12  1  0  0  0  0
  1 13  1  0  0  0  0
  2 14  1  0  0  0  0
  6 15  1  0  0  0  0
  6 16  1  0  0  0  0
  6 17  1  0  0  0  0
 10 18  1  0  0  0  0
 10 19  1  0  0  0  0
 10 20  1  0  0  0  0
M  END
