 xtb: 6.7.1 (edcfbbe)
          04112512393D

 17 16  0     0  0            999 V2000
   -2.1976    0.9614   -0.6789 C   0  0  0  0  0  0  0  0  0  0  0  0
   -2.0905   -0.3123    0.1509 C   0  0  0  0  0  0  0  0  0  0  0  0
   -0.8258   -0.3171    1.0146 C   0  0  0  0  0  0  0  0  0  0  0  0
    0.4131   -0.4015    0.1619 C   0  0  0  0  0  0  0  0  0  0  0  0
    0.5971   -1.2035   -0.7294 O   0  0  0  0  0  0  0  0  0  0  0  0
    1.3099    0.5178    0.5054 O   0  0  0  0  0  0  0  0  0  0  0  0
    2.5468    0.5382   -0.2117 C   0  0  0  0  0  0  0  0  0  0  0  0
   -3.1116    0.9549   -1.2666 H   0  0  0  0  0  0  0  0  0  0  0  0
   -2.2051    1.8379   -0.0354 H   0  0  0  0  0  0  0  0  0  0  0  0
   -1.3533    1.0417   -1.3611 H   0  0  0  0  0  0  0  0  0  0  0  0
   -2.0638   -1.1800   -0.5108 H   0  0  0  0  0  0  0  0  0  0  0  0
   -2.9614   -0.4011    0.8006 H   0  0  0  0  0  0  0  0  0  0  0  0
   -0.8322   -1.1955    1.6627 H   0  0  0  0  0  0  0  0  0  0  0  0
   -0.7638    0.5801    1.6294 H   0  0  0  0  0  0  0  0  0  0  0  0
    3.0484   -0.4256   -0.1175 H   0  0  0  0  0  0  0  0  0  0  0  0
    3.1343    1.3311    0.2397 H   0  0  0  0  0  0  0  0  0  0  0  0
    2.3620    0.7394   -1.2676 H   0  0  0  0  0  0  0  0  0  0  0  0
  1  2  1  0  0  0  0
  2  3  1  0  0  0  0
  3  4  1  0  0  0  0
  4  5  2  0  0  0  0
  4  6  1  0  0  0  0
  6  7  1  0  0  0  0
  1  8  1  0  0  0  0
  1  9  1  0  0  0  0
  1 10  1  0  0  0  0
  2 11  1  0  0  0  0
  2 12  1  0  0  0  0
  3 13  1  0  0  0  0
  3 14  1  0  0  0  0
  7 15  1  0  0  0  0
  7 16  1  0  0  0  0
  7 17  1  0  0  0  0
M  END
