  21
 
 C          3.8448346967        0.3540293047       -0.0002801228
 C          2.5815225729       -0.4978828817        0.0013304008
 C          1.3172646286        0.3586375219        0.0066080115
 C          0.0493748737       -0.4917580762        0.0065693120
 C         -1.2120266087        0.3658093374        0.0023546873
 C         -2.4789338562       -0.4828537837        0.0003889145
 O         -3.5954292512        0.3802279536       -0.0021785673
 H          4.7316296286       -0.2755503775       -0.0034633232
 H          3.8730990401        0.9919024629       -0.8810963404
 H          3.8773944341        0.9891156807        0.8823934730
 H          2.5816294625       -1.1456222723        0.8810496376
 H          2.5766598689       -1.1406745509       -0.8819169193
 H          1.3168570752        1.0061518290       -0.8730570060
 H          1.3206223992        1.0019342536        0.8893138207
 H          0.0466236901       -1.1364952509        0.8889280255
 H          0.0496946872       -1.1393246838       -0.8737777112
 H         -1.2266550949        1.0079452618       -0.8794911649
 H         -1.2314330326        1.0113354327        0.8816549458
 H         -2.4911486908       -1.1294855897       -0.8898497451
 H         -2.4945079501       -1.1287175588        0.8911391943
 H         -4.4024841335       -0.1441984834       -0.0030929616
          21
        -24.05173503
 C          3.7174377784        0.0621667179        0.2140511267
 C          2.3565162363        0.5063001444       -0.3080991849
 C          1.2327435559       -0.3969223172        0.1941212924
 C         -0.1325143644        0.0432229690       -0.3266436549
 C         -1.2557917859       -0.8702752248        0.1588827633
 C         -2.6303714732       -0.3652848105       -0.2824983663
 O         -2.9485560786        0.8995589474        0.2471629707
 H          3.9370931246       -0.9531835114       -0.1092479243
 H          4.5027246053        0.7173292777       -0.1557764210
 H          3.7354268106        0.0851929102        1.3016580011
 H          2.3657126652        0.4955904771       -1.4003439891
 H          2.1627159708        1.5331364776        0.0101132537
 H          1.2257575306       -0.3872402037        1.2870800407
 H          1.4266196929       -1.4242771110       -0.1245199624
 H         -0.1217526068        0.0449429053       -1.4187982209
 H         -0.3386989680        1.0643859110        0.0009662491
 H         -1.2313868815       -0.9292007617        1.2515840951
 H         -1.1116969753       -1.8792545389       -0.2319725640
 H         -2.6553335512       -0.2385961524       -1.3672579791
 H         -3.4004124313       -1.1001500228       -0.0011967865
 H         -2.8742662166        0.8563680472        1.2073650475
