21
 xtb: 6.7.1 (edcfbbe)
C            1.84692053869782        0.78619586173160       -1.04686034679073
C            1.45309800891801       -0.23727536293485        0.01014915468241
H            2.22055187397294       -1.02616692228053       -0.00123618013329
C            0.10156187264696       -0.92581120159503       -0.20825963865013
C           -1.17554161794483       -0.21138230703441        0.26531264497944
C           -1.40344848272142        1.16221249143021       -0.36696195256164
C           -2.37578996869909       -1.11894860463610       -0.02013436363152
O            1.43958666829466        0.35850032195242        1.33254505641089
H            1.89373557745238        0.30555553853968       -2.02970091211884
H            1.14608445800524        1.62144201371947       -1.10319960641238
H            2.84277327079137        1.18646556304980       -0.82480536282697
H            0.01154435274235       -1.14560284601925       -1.28069670734231
H            0.13423265540828       -1.89569188282719        0.30414307641391
H           -1.10667286871831       -0.07843752467584        1.35249213964608
H           -2.39204332987906        1.54512822930916       -0.08937043990771
H           -1.36396433778808        1.10148775192868       -1.46132973995369
H           -0.66414939159478        1.89670450115533       -0.03762320746285
H           -3.30022462801005       -0.68293826314415        0.37337631360303
H           -2.50379828627965       -1.25816343443719       -1.10073768721723
H           -2.24763364413890       -2.10791184326342        0.43325741831935
H            2.31848886922932        0.73017104874614        1.48203958388350
