  35
 
 C         -2.0000070302       -3.9193366451       -0.7410218479
 C         -1.6153154122       -3.2223282610        0.5626501542
 N         -0.2266281705       -2.8408290906        0.5840067469
 C          0.2192692703       -1.6168754525        0.2582718590
 N         -0.6610646586       -0.6259459287        0.1174751765
 C         -0.1324074561        0.5642514071       -0.1567528976
 N          1.1834430911        0.7992097298       -0.3018205526
 C          1.9493787388       -0.2627694427       -0.1444670382
 N          1.5462618705       -1.4880162928        0.1344575578
 S          3.6746293738       -0.0518606513       -0.3194428564
 C          3.7375757280        1.7274667466       -0.6818025586
 N         -0.9201381795        1.6359258242       -0.3187376158
 C         -2.3675422258        1.6917239126       -0.1695520572
 C         -2.7528124985        1.2761600296        1.2535073777
 C         -2.7932051627        3.1366916146       -0.4287930589
 C         -3.0218278686        0.7574157895       -1.1913180329
 H         -3.0540318018       -4.1832680412       -0.7273745297
 H         -1.8149235406       -3.2592071561       -1.5850015075
 H         -1.4153302393       -4.8269279054       -0.8759313846
 H         -1.8074025973       -3.8849737684        1.4123662991
 H         -2.1965920272       -2.3072614820        0.6847384173
 H          0.4760570114       -3.5639782668        0.5813406167
 H          4.7858561819        1.9869906434       -0.7820748803
 H          3.2802446319        2.2701902174        0.1383435142
 H          3.2011185534        1.9205312922       -1.6046350532
 H         -0.4238521854        2.4920489047       -0.5076955842
 H         -3.8319828898        1.3049995914        1.3758163445
 H         -2.3989335617        0.2674913656        1.4437085351
 H         -2.2986383313        1.9475016149        1.9788791215
 H         -3.8705529273        3.2309386298       -0.3241688384
 H         -2.5178898026        3.4420467092       -1.4361014068
 H         -2.3196733838        3.8092675890        0.2835555752
 H         -4.1030391408        0.7843669448       -1.0876546194
 H         -2.7576514316        1.0602470536       -2.2019880973
 H         -2.6719039957       -0.2569994277       -1.0276851522
          35
        -49.04162896
 C          3.2884640490       -3.2938717467        0.9396112294
 C          2.8168506110       -2.7716783060       -0.4157471424
 N          2.7332732859       -1.3340221240       -0.4446382746
 C          1.5911608535       -0.6499225410       -0.2623810168
 N          0.4363873427       -1.3038898752       -0.2458042439
 C         -0.6524729870       -0.5359321813       -0.1074094793
 N         -0.6264730563        0.7960960875        0.0127291137
 C          0.5810570995        1.3267129871       -0.0127963507
 N          1.7238345843        0.6825754909       -0.1431816111
 S          0.6373785234        3.0657375824        0.1487576305
 C          2.4306793688        3.3342548734        0.0562319990
 N         -1.8230996959       -1.1833487057       -0.0883239370
 C         -3.1495101577       -0.5923182682        0.0359759108
 C         -4.1574754028       -1.7408946013       -0.0035705154
 C         -3.2534621997        0.1578036364        1.3665409987
 C         -3.3950337803        0.3681690520       -1.1307543339
 H          4.2781950764       -2.9081792606        1.1758018033
 H          2.5980868354       -2.9812018678        1.7188517861
 H          3.3328982738       -4.3794371962        0.9266116451
 H          1.8160386419       -3.1453785545       -0.6357736890
 H          3.5054335893       -3.0967947280       -1.2023485481
 H          3.5805028117       -0.7971111430       -0.3438905995
 H          2.5889084415        4.4046817064        0.1318938340
 H          2.7956330331        2.9539929374       -0.8918216828
 H          2.9091291102        2.8131641059        0.8785666929
 H         -1.7507167292       -2.1828901731       -0.1914935291
 H         -5.1675610847       -1.3510240743        0.0863746588
 H         -4.0823831274       -2.2847042691       -0.9430982130
 H         -3.9825529442       -2.4327464131        0.8178603912
 H         -4.2452173792        0.5869646552        1.4781362274
 H         -2.5172751048        0.9554986905        1.3891608226
 H         -3.0669647142       -0.5186009089        2.1978221080
 H         -4.3899300254        0.7985677157       -1.0589144440
 H         -2.6602520655        1.1669616863       -1.1009367439
 H         -3.3064695888       -0.1576753772       -2.0789487989
