  35
 
 C          5.1450000000       -5.1550000000        2.0500000000
 C          4.0580000000       -4.1760000000        2.3340000000
 N          3.4770000000       -4.4050000000        3.6360000000
 C          2.4260000000       -3.6300000000        4.1730000000
 N          1.9610000000       -2.6310000000        3.4060000000
 C          0.9640000000       -1.9390000000        3.9810000000
 N          0.4290000000       -2.1600000000        5.1930000000
 C          0.9940000000       -3.1900000000        5.8440000000
 N          1.9930000000       -3.9680000000        5.3980000000
 S          0.3520000000       -3.5620000000        7.4630000000
 C          0.6910000000       -1.9920000000        8.2910000000
 N          0.4310000000       -0.8890000000        3.2490000000
 C          0.8920000000       -0.5160000000        1.9240000000
 C          0.7040000000       -1.7000000000        0.9690000000
 C          0.0760000000        0.6830000000        1.4290000000
 C          2.3770000000       -0.1410000000        1.9910000000
 H          5.5830000000       -4.9770000000        1.0620000000
 H          5.9330000000       -5.0950000000        2.8090000000
 H          4.7400000000       -6.1740000000        2.0620000000
 H          3.2590000000       -4.2640000000        1.5920000000
 H          4.4430000000       -3.1520000000        2.3170000000
 H          3.8450000000       -5.1670000000        4.1950000000
 H          0.3520000000       -2.0410000000        9.3280000000
 H          0.1650000000       -1.1840000000        7.7790000000
 H          1.7640000000       -1.7900000000        8.2730000000
 H         -0.3220000000       -0.3510000000        3.6620000000
 H          1.0430000000       -1.4510000000       -0.0430000000
 H          1.2670000000       -2.5780000000        1.3060000000
 H         -0.3520000000       -1.9850000000        0.8960000000
 H          0.3980000000        0.9940000000        0.4280000000
 H          0.2020000000        1.5470000000        2.0930000000
 H         -0.9920000000        0.4470000000        1.3820000000
 H          2.7570000000        0.1470000000        1.0040000000
 H          2.5460000000        0.6980000000        2.6750000000
 H          2.9840000000       -0.9860000000        2.3370000000
