 xtb: 6.7.1 (edcfbbe)
          04112512243D

 23 22  0     0  0            999 V2000
    2.1549    1.3093   -0.0327 C   0  0  0  0  0  0  0  0  0  0  0  0
    1.2412    0.2674    0.6048 C   0  0  0  0  0  0  0  0  0  0  0  0
    0.3442   -0.4468   -0.4255 C   0  0  0  0  0  0  0  0  0  0  0  0
    0.6510   -0.1142   -1.4244 H   0  0  0  0  0  0  0  0  0  0  0  0
    0.5621   -1.9602   -0.3725 C   0  0  0  0  0  0  0  0  0  0  0  0
   -1.1541   -0.0966   -0.3021 C   0  0  0  0  0  0  0  0  0  0  0  0
   -1.7782   -0.5203    1.0266 C   0  0  0  0  0  0  0  0  0  0  0  0
   -1.3943    1.3933   -0.5449 C   0  0  0  0  0  0  0  0  0  0  0  0
    1.5723    2.0792   -0.5326 H   0  0  0  0  0  0  0  0  0  0  0  0
    2.7739    1.7858    0.7247 H   0  0  0  0  0  0  0  0  0  0  0  0
    2.8103    0.8446   -0.7662 H   0  0  0  0  0  0  0  0  0  0  0  0
    0.6330    0.7548    1.3663 H   0  0  0  0  0  0  0  0  0  0  0  0
    1.8604   -0.4710    1.1173 H   0  0  0  0  0  0  0  0  0  0  0  0
   -0.0907   -2.4674   -1.0800 H   0  0  0  0  0  0  0  0  0  0  0  0
    1.5923   -2.1974   -0.6288 H   0  0  0  0  0  0  0  0  0  0  0  0
    0.3624   -2.3490    0.6227 H   0  0  0  0  0  0  0  0  0  0  0  0
   -1.6694   -0.6481   -1.0985 H   0  0  0  0  0  0  0  0  0  0  0  0
   -1.7068   -1.5950    1.1665 H   0  0  0  0  0  0  0  0  0  0  0  0
   -2.8312   -0.2475    1.0401 H   0  0  0  0  0  0  0  0  0  0  0  0
   -1.2930   -0.0297    1.8664 H   0  0  0  0  0  0  0  0  0  0  0  0
   -0.9736    1.6980   -1.5007 H   0  0  0  0  0  0  0  0  0  0  0  0
   -0.9415    1.9943    0.2393 H   0  0  0  0  0  0  0  0  0  0  0  0
   -2.4614    1.6045   -0.5592 H   0  0  0  0  0  0  0  0  0  0  0  0
  1  2  1  0  0  0  0
  2  3  1  0  0  0  0
  3  4  1  0  0  0  0
  3  5  1  0  0  0  0
  3  6  1  0  0  0  0
  6  7  1  0  0  0  0
  6  8  1  0  0  0  0
  1  9  1  0  0  0  0
  1 10  1  0  0  0  0
  1 11  1  0  0  0  0
  2 12  1  0  0  0  0
  2 13  1  0  0  0  0
  5 14  1  0  0  0  0
  5 15  1  0  0  0  0
  5 16  1  0  0  0  0
  6 17  1  0  0  0  0
  7 18  1  0  0  0  0
  7 19  1  0  0  0  0
  7 20  1  0  0  0  0
  8 21  1  0  0  0  0
  8 22  1  0  0  0  0
  8 23  1  0  0  0  0
M  END
