16
 xtb: 6.7.1 (edcfbbe)
C            1.76081143364911        1.13438260176859        0.30431859882595
C            1.12825960075980        0.10072176840736       -0.63536376491592
C            0.00008392149975       -0.67172016152549        0.00013740993638
O           -0.00049351311498       -1.90167231123654       -0.00059855813084
C           -1.12758556226700        0.10107316317945        0.63605985352901
C           -1.76090710585332        1.13374568775818       -0.30426041807161
H            2.12030690543553        0.65883664206678        1.22228860701625
H            2.61418100765002        1.60791197345474       -0.18874784471881
H            1.05217473082711        1.92029753284500        0.57920830006133
H            0.72116008292803        0.61367913183877       -1.51743733279558
H            1.87422837787736       -0.61810968249934       -0.98472115723555
H           -0.71994853608831        0.61498521777891        1.51729969452807
H           -1.87327983953237       -0.61750198607666        0.98651443509360
H           -2.61376319292055        1.60795873721614        0.18903537981675
H           -2.12128059195707        0.65714854572829       -1.22133987391587
H           -1.05240016208392        1.91923012195974       -0.58071081977918
