  18
 
 C         -2.7466464547       -0.1478907527        0.0576535935
 C         -1.3171356963        0.1561140685        0.4867099764
 C         -0.3053490261       -0.2742766457       -0.5816054331
 C          1.1124940393       -0.0668337221       -0.1245629680
 C          1.8571635052       -1.0687708762        0.3140275284
 C          1.6207381710        1.3414954633       -0.1824231512
 H         -3.4514850266        0.1722889843        0.8216252383
 H         -2.8781681108       -1.2155873441       -0.1038864463
 H         -2.9862378562        0.3696946942       -0.8686480571
 H         -1.2179824535        1.2265105864        0.6760787685
 H         -1.0944113694       -0.3690118621        1.4180400439
 H         -0.4646955790       -1.3301974380       -0.8079347204
 H         -0.4867094227        0.2997394763       -1.4935889609
 H          2.8683832323       -0.9223595280        0.6549064516
 H          1.4870513236       -2.0795936085        0.3476684771
 H          1.0095991294        1.9927225421        0.4396952376
 H          2.6504178798        1.3998106286        0.1602603361
 H          1.5707676028        1.7173079209       -1.2040647726
          18
        -18.94150160
 C         -1.9740519783       -0.5622303934       -0.6639952273
 C         -1.4943470953        0.6283732763        0.1556744978
 C         -0.2540527885        0.2888429658        0.9924599282
 C          0.9315337590       -0.0928470008        0.1492294127
 C          1.3634079608       -1.3413992275        0.0733308566
 C          1.5928324849        1.0253119793       -0.5981119933
 H         -1.1937226237       -0.8946381932       -1.3447346660
 H         -2.8531099791       -0.2958350648       -1.2468142338
 H         -2.2330826956       -1.3932225396       -0.0113966169
 H         -1.2713875379        1.4639662895       -0.5104671240
 H         -2.2920593556        0.9493816610        0.8297278717
 H          0.0051047462        1.1590211162        1.6018133636
 H         -0.5010678423       -0.5346739884        1.6653388910
 H          2.2113544999       -1.6165300137       -0.5316850631
 H          0.8876337276       -2.1424334581        0.6136687758
 H          2.4645698286        0.6692557614       -1.1409050406
 H          0.9005638252        1.4706527599       -1.3113164484
 H          1.9050807181        1.8079510331        0.0927488997
