 xtb: 6.7.1 (edcfbbe)
          04112511203D

 13 12  0     0  0            999 V2000
   -1.9231    0.4614   -0.4513 C   0  0  0  0  0  0  0  0  0  0  0  0
   -1.2380   -0.3352    0.5106 O   0  0  0  0  0  0  0  0  0  0  0  0
    0.0426   -0.6917    0.1371 C   0  0  0  0  0  0  0  0  0  0  0  0
    0.8716    0.4455    0.0747 O   0  0  0  0  0  0  0  0  0  0  0  0
    2.2172    0.1316   -0.2247 C   0  0  0  0  0  0  0  0  0  0  0  0
   -2.9078    0.6444   -0.0315 H   0  0  0  0  0  0  0  0  0  0  0  0
   -2.0086   -0.0802   -1.3982 H   0  0  0  0  0  0  0  0  0  0  0  0
   -1.3976    1.4044   -0.6120 H   0  0  0  0  0  0  0  0  0  0  0  0
    0.4038   -1.3893    0.9075 H   0  0  0  0  0  0  0  0  0  0  0  0
    0.0463   -1.1998   -0.8502 H   0  0  0  0  0  0  0  0  0  0  0  0
    2.7441    1.0810   -0.2538 H   0  0  0  0  0  0  0  0  0  0  0  0
    2.2907   -0.3694   -1.1954 H   0  0  0  0  0  0  0  0  0  0  0  0
    2.6460   -0.5132    0.5485 H   0  0  0  0  0  0  0  0  0  0  0  0
  1  2  1  0  0  0  0
  2  3  1  0  0  0  0
  3  4  1  0  0  0  0
  4  5  1  0  0  0  0
  1  6  1  0  0  0  0
  1  7  1  0  0  0  0
  1  8  1  0  0  0  0
  3  9  1  0  0  0  0
  3 10  1  0  0  0  0
  5 11  1  0  0  0  0
  5 12  1  0  0  0  0
  5 13  1  0  0  0  0
M  END
