15
 xtb: 6.7.1 (edcfbbe)
C           -1.78575944802360        0.80203314275461       -0.33137980071265
C           -1.36459874738530       -0.62380960380520        0.01039654061068
C            0.04675725536656       -0.71426807385563        0.56438651594113
O            1.01201033520156       -0.29226304580383       -0.42141663914416
C            1.73091798189068        0.88202929472806       -0.04605580323476
H           -1.74735666411093        1.44678244972296        0.55378598099417
H           -1.12976769540065        1.23509272574188       -1.09359079330474
H           -2.80815605911329        0.82742539190698       -0.72138597251755
H           -1.43765152926626       -1.26269678914944       -0.87886196583392
H           -2.04407694880417       -1.04960479078722        0.76008285292957
H            0.14398535919931       -0.09668889869136        1.46720940252236
H            0.28216395260199       -1.75096473025451        0.83880381226076
H            2.34634942368163        0.70521334088060        0.84727418307457
H            1.05623826618816        1.72622937350343        0.14894385798801
H            2.38746951579433        1.13927254303402       -0.88200767569326
