 xtb: 6.7.1 (edcfbbe)
          04112511093D

 19 19  0     0  0            999 V2000
   -2.8310   -0.7995    0.8490 C   0  0  0  0  0  0  0  0  0  0  0  0
   -2.4033   -0.3198   -0.5343 C   0  0  0  0  0  0  0  0  0  0  0  0
   -1.3896    0.6736   -0.4809 O   0  0  0  0  0  0  0  0  0  0  0  0
   -0.0967    0.3193   -0.2202 C   0  0  0  0  0  0  0  0  0  0  0  0
    0.7968    1.3853   -0.0980 C   0  0  0  0  0  0  0  0  0  0  0  0
    2.1341    1.1534    0.1469 C   0  0  0  0  0  0  0  0  0  0  0  0
    2.6064   -0.1441    0.2743 C   0  0  0  0  0  0  0  0  0  0  0  0
    1.7246   -1.2012    0.1514 C   0  0  0  0  0  0  0  0  0  0  0  0
    0.3785   -0.9812   -0.0933 C   0  0  0  0  0  0  0  0  0  0  0  0
   -3.6446   -1.5112    0.7494 H   0  0  0  0  0  0  0  0  0  0  0  0
   -2.0034   -1.2754    1.3690 H   0  0  0  0  0  0  0  0  0  0  0  0
   -3.1680    0.0464    1.4424 H   0  0  0  0  0  0  0  0  0  0  0  0
   -3.2369    0.1847   -1.0290 H   0  0  0  0  0  0  0  0  0  0  0  0
   -2.0826   -1.1585   -1.1624 H   0  0  0  0  0  0  0  0  0  0  0  0
    0.4103    2.3871   -0.2023 H   0  0  0  0  0  0  0  0  0  0  0  0
    2.8113    1.9887    0.2393 H   0  0  0  0  0  0  0  0  0  0  0  0
    3.6519   -0.3266    0.4676 H   0  0  0  0  0  0  0  0  0  0  0  0
    2.0805   -2.2160    0.2475 H   0  0  0  0  0  0  0  0  0  0  0  0
   -0.2808   -1.8294   -0.1850 H   0  0  0  0  0  0  0  0  0  0  0  0
  1  2  1  0  0  0  0
  2  3  1  0  0  0  0
  3  4  1  0  0  0  0
  4  5  4  0  0  0  0
  5  6  4  0  0  0  0
  6  7  4  0  0  0  0
  7  8  4  0  0  0  0
  4  9  4  0  0  0  0
  8  9  4  0  0  0  0
  1 10  1  0  0  0  0
  1 11  1  0  0  0  0
  1 12  1  0  0  0  0
  2 13  1  0  0  0  0
  2 14  1  0  0  0  0
  5 15  1  0  0  0  0
  6 16  1  0  0  0  0
  7 17  1  0  0  0  0
  8 18  1  0  0  0  0
  9 19  1  0  0  0  0
M  END
