  40
 
 C          2.0290000000        4.1210000000        3.8400000000
 C          0.7290000000        3.7570000000        3.1550000000
 O          1.0170000000        3.0140000000        1.9820000000
 P         -0.1950000000        2.4770000000        1.0250000000
 S         -1.2910000000        3.9440000000        0.3190000000
 O         -0.9930000000        1.5920000000        2.1440000000
 C         -2.1750000000        0.8900000000        1.7940000000
 C         -2.6980000000        0.1620000000        3.0140000000
 S          0.6690000000        1.1030000000       -0.3520000000
 C          1.3980000000       -0.2300000000        0.6530000000
 H          0.7210000000       -0.4590000000        1.4820000000
 C          1.6530000000       -1.4870000000       -0.1770000000
 Cl         2.3660000000       -2.8000000000        0.7940000000
 N          2.6280000000        0.2370000000        1.2390000000
 C          3.7180000000        0.6730000000        0.5060000000
 O          3.8690000000        0.7570000000       -0.6980000000
 C          4.7380000000        1.0450000000        1.4860000000
 C          6.0120000000        1.5390000000        1.2960000000
 C          6.7680000000        1.8080000000        2.4400000000
 C          6.2410000000        1.5810000000        3.7280000000
 C          4.9470000000        1.0800000000        3.8970000000
 C          4.2190000000        0.8220000000        2.7530000000
 C          2.8600000000        0.3040000000        2.6020000000
 O          2.1330000000        0.0100000000        3.5320000000
 H          1.8430000000        4.6960000000        4.7510000000
 H          2.5930000000        3.2190000000        4.1010000000
 H          2.6640000000        4.7120000000        3.1730000000
 H          0.1780000000        4.6600000000        2.8740000000
 H          0.1050000000        3.1470000000        3.8150000000
 H         -2.9170000000        1.6080000000        1.4290000000
 H         -1.9410000000        0.1800000000        0.9940000000
 H         -3.6110000000       -0.3910000000        2.7780000000
 H         -1.9480000000       -0.5400000000        3.3940000000
 H         -2.9110000000        0.8680000000        3.8230000000
 H          0.7110000000       -1.8740000000       -0.5800000000
 H          2.3140000000       -1.2920000000       -1.0300000000
 H          6.4170000000        1.7140000000        0.3060000000
 H          7.7780000000        2.1990000000        2.3380000000
 H          6.8520000000        1.7990000000        4.6000000000
 H          4.5420000000        0.9060000000        4.8860000000
