 26

C      0.138000     0.857000     0.457000
C      0.182000     0.733000     1.972000
C      1.351000    -0.142000     2.429000
C      1.389000    -0.262000     3.956000
C      2.548000    -1.135000     4.484000
H      2.435000    -2.144000     4.068000
C      3.912000    -0.589000     4.050000
C      2.444000    -1.233000     6.021000
C      3.540000    -2.074000     6.661000
H     -0.701000     1.484000     0.139000
H      1.063000     1.298000     0.072000
H      0.016000    -0.130000    -0.001000
H      0.271000     1.733000     2.411000
H     -0.763000     0.305000     2.326000
H      1.250000    -1.134000     1.974000
H      2.294000     0.288000     2.070000
H      0.431000    -0.662000     4.314000
H      1.485000     0.746000     4.380000
H      4.729000    -1.210000     4.426000
H      3.991000    -0.547000     2.958000
H      4.083000     0.418000     4.442000
H      2.502000    -0.224000     6.449000
H      1.466000    -1.640000     6.306000
H      3.431000    -2.118000     7.748000
H      4.520000    -1.635000     6.448000
H      3.533000    -3.095000     6.267000
