 xtb: 6.7.1 (edcfbbe)
          04112512383D

 23 22  0     0  0            999 V2000
   -2.4327    0.8315    0.5432 C   0  0  0  0  0  0  0  0  0  0  0  0
   -1.2755   -0.1260    0.2565 C   0  0  0  0  0  0  0  0  0  0  0  0
   -1.6297   -1.0260   -0.9252 C   0  0  0  0  0  0  0  0  0  0  0  0
    0.0003    0.6849    0.0000 C   0  0  0  0  0  0  0  0  0  0  0  0
    1.2756   -0.1269   -0.2569 C   0  0  0  0  0  0  0  0  0  0  0  0
    2.4334    0.8297   -0.5433 C   0  0  0  0  0  0  0  0  0  0  0  0
    1.6291   -1.0276    0.9245 C   0  0  0  0  0  0  0  0  0  0  0  0
   -3.3409    0.2770    0.7678 H   0  0  0  0  0  0  0  0  0  0  0  0
   -2.2023    1.4703    1.3928 H   0  0  0  0  0  0  0  0  0  0  0  0
   -2.6225    1.4650   -0.3208 H   0  0  0  0  0  0  0  0  0  0  0  0
   -1.1279   -0.7521    1.1421 H   0  0  0  0  0  0  0  0  0  0  0  0
   -1.7103   -0.4384   -1.8373 H   0  0  0  0  0  0  0  0  0  0  0  0
   -0.8761   -1.7946   -1.0740 H   0  0  0  0  0  0  0  0  0  0  0  0
   -2.5835   -1.5186   -0.7493 H   0  0  0  0  0  0  0  0  0  0  0  0
    0.1756    1.3322    0.8636 H   0  0  0  0  0  0  0  0  0  0  0  0
   -0.1745    1.3327   -0.8633 H   0  0  0  0  0  0  0  0  0  0  0  0
    1.1273   -0.7526   -1.1426 H   0  0  0  0  0  0  0  0  0  0  0  0
    2.6238    1.4628    0.3208 H   0  0  0  0  0  0  0  0  0  0  0  0
    3.3412    0.2746   -0.7681 H   0  0  0  0  0  0  0  0  0  0  0  0
    2.2035    1.4689   -1.3927 H   0  0  0  0  0  0  0  0  0  0  0  0
    2.5824   -1.5210    0.7484 H   0  0  0  0  0  0  0  0  0  0  0  0
    1.7102   -0.4404    1.8368 H   0  0  0  0  0  0  0  0  0  0  0  0
    0.8749   -1.7956    1.0731 H   0  0  0  0  0  0  0  0  0  0  0  0
  1  2  1  0  0  0  0
  2  3  1  0  0  0  0
  2  4  1  0  0  0  0
  4  5  1  0  0  0  0
  5  6  1  0  0  0  0
  5  7  1  0  0  0  0
  1  8  1  0  0  0  0
  1  9  1  0  0  0  0
  1 10  1  0  0  0  0
  2 11  1  0  0  0  0
  3 12  1  0  0  0  0
  3 13  1  0  0  0  0
  3 14  1  0  0  0  0
  4 15  1  0  0  0  0
  4 16  1  0  0  0  0
  5 17  1  0  0  0  0
  6 18  1  0  0  0  0
  6 19  1  0  0  0  0
  6 20  1  0  0  0  0
  7 21  1  0  0  0  0
  7 22  1  0  0  0  0
  7 23  1  0  0  0  0
M  END
