  14
 
 C         -1.2922068364       -0.0015732190       -0.0000321403
 C         -0.5771762752       -1.2164301594        0.0000696612
 C          0.8222329424       -1.2030791558        0.0000969378
 C          1.5224587989        0.0017850478       -0.0000474092
 C          0.8193609673        1.2049792737       -0.0001650193
 C         -0.5800749880        1.2149834077       -0.0001273097
 Cl        -1.3213874480        2.7554661284       -0.0007627728
 Cl         1.6864519549        2.6771755753       -0.0003601241
 Cl         3.2252260173        0.0038195887       -0.0000862039
 Cl         1.6928335201       -2.6732085770        0.0003265712
 Cl        -1.3148032378       -2.7586740625        0.0007795831
 N         -2.7516127859       -0.0033134526       -0.0000480689
 O         -3.3209691737        1.0595900552        0.0027626127
 O         -3.3184295937       -1.0675742946       -0.0034889980
          14
        -46.55307039
 C         -1.2624701605        0.0004171602       -0.0001634241
 C         -0.5736090171       -1.2145438748       -0.0067942560
 C          0.8237438777       -1.2112133583       -0.0155684441
 C          1.5193058217       -0.0004328920       -0.0000125807
 C          0.8245370035        1.2108510554        0.0154311039
 C         -0.5727909154        1.2149430571        0.0065118601
 Cl        -1.4114454817        2.7053714848        0.0485843008
 Cl         1.6839452013        2.6863935735        0.0435444754
 Cl         3.2243963285       -0.0010383547       -0.0000983132
 Cl         1.6823299382       -2.6873351652       -0.0433480450
 Cl        -1.4132406253       -2.7042996480       -0.0485685655
 N         -2.7233167614        0.0007073407        0.0000246988
 O         -3.2651750700       -0.6995590420        0.8140541178
 O         -3.2653037807        0.7009361998       -0.8138807933
