  14
 
 C          1.8850000000       -1.0360000000       -0.1120000000
 C          2.9210000000       -1.6310000000        0.6080000000
 C          2.8780000000       -1.6520000000        2.0020000000
 C          1.8000000000       -1.0790000000        2.6760000000
 C          0.7640000000       -0.4840000000        1.9550000000
 C          0.8070000000       -0.4630000000        0.5610000000
 Cl        -0.4790000000        0.2740000000       -0.3570000000
 Cl        -0.5850000000        0.2340000000        2.7930000000
 Cl         1.7470000000       -1.1050000000        4.4180000000
 Cl         4.1750000000       -2.3960000000        2.8980000000
 Cl         4.2590000000       -2.3420000000       -0.2520000000
 N          1.9280000000       -1.0150000000       -1.5410000000
 O          0.9850000000       -0.4760000000       -2.1600000000
 O          2.9070000000       -1.5360000000       -2.1180000000
