  8
 
 C         -0.0002387499        0.0014666155        1.8382877046
 C         -0.0002499182        0.0004429496        0.3292112471
 Cl        -0.3157976616        1.6358450304       -0.2998534290
 Cl         1.5746359902       -0.5447825984       -0.2981427326
 Cl        -1.2591219037       -1.0915246127       -0.2978811889
 H          0.1936410240       -1.0039324850        2.2055809624
 H          0.7737475675        0.6724475958        2.2044289660
 H         -0.9680994417        0.3366534857        2.2046573617
           8
        -19.46150717
 C         -0.0000162183        0.0002339153        1.8312586045
 C         -0.0000480120        0.0001627621        0.3221112991
 Cl        -1.4368021259       -0.8437282052       -0.3056203328
 Cl        -0.0122916735        1.6659981732       -0.3057619926
 Cl         1.4491213581       -0.8224251901       -0.3055970425
 H          0.0069078525       -1.0238873251        2.1978403716
 H          0.8833195063        0.5183782338        2.1978266994
 H         -0.8904313174        0.5062418993        2.1977882499
