 8

C      1.024000     0.281000    -0.270000
C      1.287000     1.756000     0.001000
Cl     0.160000     2.755000    -0.957000
Cl     1.048000     2.102000     1.737000
Cl     2.965000     2.164000    -0.453000
H      1.703000    -0.360000     0.305000
H     -0.000000     0.000000    -0.000000
H      1.163000     0.037000    -1.331000
