  8
 
 C          1.0240000000        0.2810000000       -0.2700000000
 C          1.2870000000        1.7560000000        0.0010000000
 Cl         0.1600000000        2.7550000000       -0.9570000000
 Cl         1.0480000000        2.1020000000        1.7370000000
 Cl         2.9650000000        2.1640000000       -0.4530000000
 H          1.7030000000       -0.3600000000        0.3050000000
 H          0.0000000000        0.0000000000        0.0000000000
 H          1.1630000000        0.0370000000       -1.3310000000
