 xtb: 6.7.1 (edcfbbe)
          04112512233D

 20 19  0     0  0            999 V2000
   -2.9974    0.7530    0.1903 C   0  0  0  0  0  0  0  0  0  0  0  0
   -1.8030   -0.1801    0.3685 C   0  0  0  0  0  0  0  0  0  0  0  0
   -2.0204   -1.4960   -0.3740 C   0  0  0  0  0  0  0  0  0  0  0  0
   -0.5343    0.5085   -0.1297 C   0  0  0  0  0  0  0  0  0  0  0  0
    0.5978   -0.2992    0.2182 O   0  0  0  0  0  0  0  0  0  0  0  0
    1.8043    0.1841   -0.0483 C   0  0  0  0  0  0  0  0  0  0  0  0
    1.9833    1.2602   -0.5828 O   0  0  0  0  0  0  0  0  0  0  0  0
    2.8906   -0.7441    0.4044 C   0  0  0  0  0  0  0  0  0  0  0  0
   -3.1291    1.0011   -0.8601 H   0  0  0  0  0  0  0  0  0  0  0  0
   -2.8540    1.6755    0.7469 H   0  0  0  0  0  0  0  0  0  0  0  0
   -3.9025    0.2704    0.5474 H   0  0  0  0  0  0  0  0  0  0  0  0
   -1.6656   -0.3936    1.4330 H   0  0  0  0  0  0  0  0  0  0  0  0
   -2.8874   -2.0148    0.0254 H   0  0  0  0  0  0  0  0  0  0  0  0
   -1.1497   -2.1371   -0.2650 H   0  0  0  0  0  0  0  0  0  0  0  0
   -2.1850   -1.3093   -1.4328 H   0  0  0  0  0  0  0  0  0  0  0  0
   -0.5519    0.6368   -1.2174 H   0  0  0  0  0  0  0  0  0  0  0  0
   -0.4089    1.4970    0.3253 H   0  0  0  0  0  0  0  0  0  0  0  0
    3.1974   -0.4483    1.4056 H   0  0  0  0  0  0  0  0  0  0  0  0
    3.7459   -0.6545   -0.2578 H   0  0  0  0  0  0  0  0  0  0  0  0
    2.5196   -1.7628    0.4353 H   0  0  0  0  0  0  0  0  0  0  0  0
  1  2  1  0  0  0  0
  2  3  1  0  0  0  0
  2  4  1  0  0  0  0
  4  5  1  0  0  0  0
  5  6  1  0  0  0  0
  6  7  2  0  0  0  0
  6  8  1  0  0  0  0
  1  9  1  0  0  0  0
  1 10  1  0  0  0  0
  1 11  1  0  0  0  0
  2 12  1  0  0  0  0
  3 13  1  0  0  0  0
  3 14  1  0  0  0  0
  3 15  1  0  0  0  0
  4 16  1  0  0  0  0
  4 17  1  0  0  0  0
  8 18  1  0  0  0  0
  8 19  1  0  0  0  0
  8 20  1  0  0  0  0
M  END
