  28
 
 C         -3.9767463637       -0.6944833369        0.0021350524
 C         -3.9767533142        0.6945674273        0.0020096141
 C         -2.7808367102        1.3832542310        0.0031072209
 C         -1.5661961958        0.6982444093        0.0042001227
 C         -1.5661881416       -0.6981149641        0.0042966074
 C         -2.7808184035       -1.3831463337        0.0033188985
 C         -0.3111678561       -1.4674460171        0.0017608704
 O         -0.3573819874       -2.7035429549        0.0068517497
 C          0.9323877333       -0.7124096144       -0.0031868349
 C          2.1601252529       -1.4115089345        0.0018077851
 C          3.3704191665       -0.6795200145        0.0126652943
 C          3.3704118211        0.6796805520        0.0126368441
 C          2.1601164546        1.4116631149        0.0017381066
 C          0.9323809362        0.7125561210       -0.0032420286
 C         -0.3111805747        1.4675837334        0.0015512371
 O         -0.3574030127        2.7036789661        0.0065929952
 N          2.2128536133        2.7567677141       -0.0123087152
 N          2.2128657747       -2.7566141089       -0.0121423493
 H         -4.9119427195       -1.2350097026        0.0011317456
 H         -4.9119589529        1.2350802079        0.0008735754
 H         -2.7563227555        2.4629051560        0.0024712567
 H         -2.7562731922       -2.4627991163        0.0029019733
 H          4.3016823265       -1.2283263340        0.0200046108
 H          4.3016729060        1.2284915355        0.0199387834
 H          3.0962047897        3.2304160942        0.0325410689
 H          1.3260330661        3.2515787252        0.0066300494
 H          1.3260432470       -3.2514171205        0.0068299408
 H          3.0962171397       -3.2302663576        0.0327141380
          28
        -49.05612473
 C         -3.9786536159       -0.6944774950       -0.0227094869
 C         -3.9785728626        0.6945589079       -0.0257303593
 C         -2.7826295847        1.3831483989       -0.0121897307
 C         -1.5680977630        0.6982050601        0.0020651452
 C         -1.5681754565       -0.6981365402        0.0039675134
 C         -2.7827550899       -1.3831181433       -0.0071193293
 C         -0.3132632767       -1.4675032880        0.0183556446
 O         -0.3594714881       -2.7035640252        0.0279927311
 C          0.9302051883       -0.7124520640        0.0124871602
 C          2.1576898805       -1.4117918386       -0.0060396596
 C          3.3674858534       -0.6796170382       -0.0382666083
 C          3.3675608505        0.6796060633       -0.0365822033
 C          2.1577786486        1.4117617605       -0.0036776629
 C          0.9302339087        0.7124080032        0.0128842188
 C         -0.3131730949        1.4674962640        0.0171059481
 O         -0.3593684279        2.7035757695        0.0261159515
 N          2.2108748946        2.7568675244        0.0175976514
 N          2.2109128227       -2.7569393257        0.0137940493
 H         -4.9138271461       -1.2350237192       -0.0325842572
 H         -4.9136287343        1.2351523590       -0.0382110722
 H         -2.7580439411        2.4628686976       -0.0126790122
 H         -2.7581352930       -2.4628522312       -0.0037829824
 H          4.2986822240       -1.2282102020       -0.0617535440
 H          4.2988168999        1.2281799314       -0.0584626270
 H          3.0942412581        3.2293508423       -0.0402258696
 H          1.3240910576        3.2521147185        0.0131187590
 H          1.3242750254       -3.2524104234        0.0078248464
 H          3.0938831819       -3.2294078719       -0.0501246128
