 28

C      1.290000    -1.687000    -0.352000
C      0.956000    -0.463000     0.226000
C      1.848000     0.168000     1.093000
C      3.081000    -0.428000     1.384000
C      3.416000    -1.654000     0.806000
C      2.518000    -2.284000    -0.064000
C      4.713000    -2.294000     1.104000
O      4.971000    -3.369000     0.579000
C      5.652000    -1.618000     2.024000
C      6.885000    -2.214000     2.315000
C      7.777000    -1.583000     3.182000
C      7.442000    -0.359000     3.759000
C      6.215000     0.238000     3.472000
C      5.317000    -0.392000     2.602000
C      4.019000     0.248000     2.304000
O      3.691000     1.322000     2.793000
N      5.947000     1.479000     4.094000
N      7.294000    -3.452000     1.768000
H      0.594000    -2.176000    -1.026000
H      0.001000     0.001000    -0.001000
H      1.562000     1.122000     1.529000
H      2.751000    -3.238000    -0.528000
H      8.738000    -2.034000     3.417000
H      8.149000     0.120000     4.433000
H      6.612000     1.851000     4.740000
H      5.059000     1.912000     3.948000
H      6.662000    -3.954000     1.180000
H      8.166000    -3.843000     2.054000
