  28
 
 C          1.2900000000       -1.6870000000       -0.3520000000
 C          0.9560000000       -0.4630000000        0.2260000000
 C          1.8480000000        0.1680000000        1.0930000000
 C          3.0810000000       -0.4280000000        1.3840000000
 C          3.4160000000       -1.6540000000        0.8060000000
 C          2.5180000000       -2.2840000000       -0.0640000000
 C          4.7130000000       -2.2940000000        1.1040000000
 O          4.9710000000       -3.3690000000        0.5790000000
 C          5.6520000000       -1.6180000000        2.0240000000
 C          6.8850000000       -2.2140000000        2.3150000000
 C          7.7770000000       -1.5830000000        3.1820000000
 C          7.4420000000       -0.3590000000        3.7590000000
 C          6.2150000000        0.2380000000        3.4720000000
 C          5.3170000000       -0.3920000000        2.6020000000
 C          4.0190000000        0.2480000000        2.3040000000
 O          3.6910000000        1.3220000000        2.7930000000
 N          5.9470000000        1.4790000000        4.0940000000
 N          7.2940000000       -3.4520000000        1.7680000000
 H          0.5940000000       -2.1760000000       -1.0260000000
 H          0.0010000000        0.0010000000       -0.0010000000
 H          1.5620000000        1.1220000000        1.5290000000
 H          2.7510000000       -3.2380000000       -0.5280000000
 H          8.7380000000       -2.0340000000        3.4170000000
 H          8.1490000000        0.1200000000        4.4330000000
 H          6.6120000000        1.8510000000        4.7400000000
 H          5.0590000000        1.9120000000        3.9480000000
 H          6.6620000000       -3.9540000000        1.1800000000
 H          8.1660000000       -3.8430000000        2.0540000000
