 xtb: 6.7.1 (edcfbbe)
          04112511193D

 14 13  0     0  0            999 V2000
   -1.1150   -0.0519    0.7135 C   0  0  0  0  0  0  0  0  0  0  0  0
    0.2384    0.5755    0.3437 C   0  0  0  0  0  0  0  0  0  0  0  0
    1.1132   -0.3980   -0.4698 C   0  0  0  0  0  0  0  0  0  0  0  0
    1.6954   -1.3987    0.3314 O   0  0  0  0  0  0  0  0  0  0  0  0
   -0.0565    1.7421   -0.3981 O   0  0  0  0  0  0  0  0  0  0  0  0
   -1.8408   -0.4619   -0.4189 O   0  0  0  0  0  0  0  0  0  0  0  0
   -1.6885    0.6826    1.2930 H   0  0  0  0  0  0  0  0  0  0  0  0
   -0.9642   -0.9416    1.3261 H   0  0  0  0  0  0  0  0  0  0  0  0
    0.7670    0.8289    1.2745 H   0  0  0  0  0  0  0  0  0  0  0  0
    1.9509    0.1495   -0.9100 H   0  0  0  0  0  0  0  0  0  0  0  0
    0.5137   -0.8332   -1.2778 H   0  0  0  0  0  0  0  0  0  0  0  0
    1.0161   -2.0317    0.5994 H   0  0  0  0  0  0  0  0  0  0  0  0
    0.7590    2.2151   -0.6093 H   0  0  0  0  0  0  0  0  0  0  0  0
   -1.9668    0.3137   -0.9850 H   0  0  0  0  0  0  0  0  0  0  0  0
  1  2  1  0  0  0  0
  2  3  1  0  0  0  0
  3  4  1  0  0  0  0
  2  5  1  0  0  0  0
  1  6  1  0  0  0  0
  1  7  1  0  0  0  0
  1  8  1  0  0  0  0
  2  9  1  0  0  0  0
  3 10  1  0  0  0  0
  3 11  1  0  0  0  0
  4 12  1  0  0  0  0
  5 13  1  0  0  0  0
  6 14  1  0  0  0  0
M  END
