 xtb: 6.7.1 (edcfbbe)
          04112512383D

 19 19  0     0  0            999 V2000
    1.2676   -2.5277    1.0838 C   0  0  0  0  0  0  0  0  0  0  0  0
    1.0467   -1.8476   -0.1535 O   0  0  0  0  0  0  0  0  0  0  0  0
    0.6775   -0.5339   -0.0418 C   0  0  0  0  0  0  0  0  0  0  0  0
    1.6236    0.4795    0.1255 C   0  0  0  0  0  0  0  0  0  0  0  0
    1.2435    1.8114    0.1636 C   0  0  0  0  0  0  0  0  0  0  0  0
   -0.0883    2.1564    0.0266 C   0  0  0  0  0  0  0  0  0  0  0  0
   -1.0365    1.1630   -0.1575 C   0  0  0  0  0  0  0  0  0  0  0  0
   -0.6678   -0.1785   -0.1870 C   0  0  0  0  0  0  0  0  0  0  0  0
   -1.6753   -1.2743   -0.3554 C   0  0  0  0  0  0  0  0  0  0  0  0
   -1.8481   -2.1510    0.4602 O   0  0  0  0  0  0  0  0  0  0  0  0
   -2.3471   -1.1763   -1.4811 O   0  0  0  0  0  0  0  0  0  0  0  0
   -2.7004    1.5964   -0.3102 Cl  0  0  0  0  0  0  0  0  0  0  0  0
    3.2953    0.0581    0.2561 Cl  0  0  0  0  0  0  0  0  0  0  0  0
    1.6591   -3.5028    0.8075 H   0  0  0  0  0  0  0  0  0  0  0  0
    0.3229   -2.6405    1.6214 H   0  0  0  0  0  0  0  0  0  0  0  0
    1.9904   -1.9941    1.7040 H   0  0  0  0  0  0  0  0  0  0  0  0
    1.9930    2.5739    0.2963 H   0  0  0  0  0  0  0  0  0  0  0  0
   -0.3920    3.1893    0.0566 H   0  0  0  0  0  0  0  0  0  0  0  0
   -2.9998   -1.8959   -1.6023 H   0  0  0  0  0  0  0  0  0  0  0  0
  1  2  1  0  0  0  0
  2  3  1  0  0  0  0
  3  4  4  0  0  0  0
  4  5  4  0  0  0  0
  5  6  4  0  0  0  0
  6  7  4  0  0  0  0
  3  8  4  0  0  0  0
  7  8  4  0  0  0  0
  8  9  1  0  0  0  0
  9 10  2  0  0  0  0
  9 11  4  0  0  0  0
  7 12  1  0  0  0  0
  4 13  1  0  0  0  0
  1 14  1  0  0  0  0
  1 15  1  0  0  0  0
  1 16  1  0  0  0  0
  5 17  1  0  0  0  0
  6 18  1  0  0  0  0
 11 19  1  0  0  0  0
M  END
