 xtb: 6.7.1 (edcfbbe)
          04112511493D

 21 20  0     0  0            999 V2000
    1.6617    1.2281   -0.5958 C   0  0  0  0  0  0  0  0  0  0  0  0
    1.4465   -0.2285   -0.1879 C   0  0  0  0  0  0  0  0  0  0  0  0
    2.1579   -0.8563   -0.7390 H   0  0  0  0  0  0  0  0  0  0  0  0
    0.0316   -0.7529   -0.4917 C   0  0  0  0  0  0  0  0  0  0  0  0
   -1.1259    0.0431    0.1385 C   0  0  0  0  0  0  0  0  0  0  0  0
   -1.7587    1.0040   -0.8677 C   0  0  0  0  0  0  0  0  0  0  0  0
   -2.1960   -0.9074    0.6764 C   0  0  0  0  0  0  0  0  0  0  0  0
    1.8003   -0.4382    1.1699 O   0  0  0  0  0  0  0  0  0  0  0  0
    1.0026    1.8889   -0.0384 H   0  0  0  0  0  0  0  0  0  0  0  0
    2.6904    1.5135   -0.3884 H   0  0  0  0  0  0  0  0  0  0  0  0
    1.4727    1.3474   -1.6583 H   0  0  0  0  0  0  0  0  0  0  0  0
   -0.0937   -0.7861   -1.5744 H   0  0  0  0  0  0  0  0  0  0  0  0
    0.0010   -1.7815   -0.1256 H   0  0  0  0  0  0  0  0  0  0  0  0
   -0.7467    0.6286    0.9836 H   0  0  0  0  0  0  0  0  0  0  0  0
   -2.2031    0.4447   -1.6883 H   0  0  0  0  0  0  0  0  0  0  0  0
   -1.0229    1.6884   -1.2789 H   0  0  0  0  0  0  0  0  0  0  0  0
   -2.5424    1.5885   -0.3904 H   0  0  0  0  0  0  0  0  0  0  0  0
   -1.7823   -1.5665    1.4362 H   0  0  0  0  0  0  0  0  0  0  0  0
   -3.0160   -0.3461    1.1188 H   0  0  0  0  0  0  0  0  0  0  0  0
   -2.5953   -1.5192   -0.1296 H   0  0  0  0  0  0  0  0  0  0  0  0
    1.2277    0.1060    1.7284 H   0  0  0  0  0  0  0  0  0  0  0  0
  1  2  1  0  0  0  0
  2  3  1  0  0  0  0
  2  4  1  0  0  0  0
  4  5  1  0  0  0  0
  5  6  1  0  0  0  0
  5  7  1  0  0  0  0
  2  8  1  0  0  0  0
  1  9  1  0  0  0  0
  1 10  1  0  0  0  0
  1 11  1  0  0  0  0
  4 12  1  0  0  0  0
  4 13  1  0  0  0  0
  5 14  1  0  0  0  0
  6 15  1  0  0  0  0
  6 16  1  0  0  0  0
  6 17  1  0  0  0  0
  7 18  1  0  0  0  0
  7 19  1  0  0  0  0
  7 20  1  0  0  0  0
  8 21  1  0  0  0  0
M  END
