  24
 
 C          1.0810000000       -0.1530000000       -0.2190000000
 N          1.5190000000        0.5270000000       -1.4290000000
 C          1.0620000000       -0.0610000000       -2.6860000000
 C          2.3230000000        1.6660000000       -1.3230000000
 O          2.7120000000        2.1690000000       -0.2700000000
 C          2.7670000000        2.3260000000       -2.5620000000
 C          3.9650000000        1.9430000000       -3.1650000000
 C          4.3850000000        2.5680000000       -4.3390000000
 C          3.6080000000        3.5760000000       -4.9090000000
 C          2.4100000000        3.9590000000       -4.3060000000
 C          1.9900000000        3.3340000000       -3.1320000000
 N          4.0370000000        4.2120000000       -6.1040000000
 O          3.3230000000        5.1160000000       -6.6020000000
 O          5.1170000000        3.8520000000       -6.6310000000
 H          1.8070000000       -0.9190000000        0.0650000000
 H          0.1110000000       -0.6310000000       -0.3830000000
 H          0.9850000000        0.5620000000        0.6030000000
 H          0.1130000000        0.3880000000       -2.9600000000
 H          0.9410000000       -1.1320000000       -2.5530000000
 H          1.8000000000        0.1330000000       -3.4570000000
 H          4.5780000000        1.1580000000       -2.7290000000
 H          5.3210000000        2.2590000000       -4.8000000000
 H          1.7950000000        4.7430000000       -4.7400000000
 H          1.0550000000        3.6410000000       -2.6690000000
