  22
 
 C          1.7285800295       -1.2482955848       -0.7516101048
 C          1.2306174156        0.1100182373       -0.2385967126
 C          2.2888650406        0.7607820070        0.6519242805
 N         -0.0095324051        0.0224833879        0.5133681973
 C         -1.2361764541       -0.1067503772       -0.2612279792
 C         -1.7115020266        1.2874520227       -0.6764296554
 C         -2.3029189824       -0.7925635700        0.5876109767
 H          0.9717565474       -1.7297430542       -1.3681514250
 H          2.6273742550       -1.1230024664       -1.3499524035
 H          1.9592007502       -1.9035824616        0.0870879137
 H          1.0462010325        0.7649286808       -1.0973586748
 H          1.9261696150        1.7183762854        1.0136498243
 H          3.2109808319        0.9159655503        0.0976831975
 H          2.4994977095        0.1263853843        1.5099711264
 H          0.0634060814       -0.7299498758        1.1903767216
 H         -1.0800043059       -0.7084111257       -1.1760119908
 H         -2.6298212975        1.2189124593       -1.2541341534
 H         -1.8915604722        1.8880896646        0.2107195536
 H         -0.9590830658        1.7865876746       -1.2807381373
 H         -3.2415847309       -0.8498618882        0.0419913915
 H         -2.4641152993       -0.2280381787        1.5029750726
 H         -1.9963406437       -1.8035237750        0.8505153069
          22
        -23.42025032
 C          1.6475025796       -1.3576441274       -0.2399093692
 C          1.2636573362        0.1272202466       -0.3338435470
 C          2.3599271779        0.9903482248        0.2907250162
 N          0.0081570177        0.4773728276        0.2971679896
 C         -1.2308295861       -0.0094155499       -0.2860460422
 C         -2.2731165404        1.1103284741       -0.1983185319
 C         -1.7743143445       -1.2747335408        0.3876705775
 H          1.6675750666       -1.6769048730        0.8010207265
 H          0.9387439949       -1.9776140440       -0.7838346023
 H          2.6345198470       -1.5158512278       -0.6679296243
 H          1.1673520330        0.3962052636       -1.3935409522
 H          2.0707406930        2.0367782253        0.2535545137
 H          3.2974437633        0.8629117051       -0.2440117346
 H          2.5127106265        0.7107351829        1.3311021837
 H          0.0386169246        0.2793307590        1.2909143426
 H         -1.0392757172       -0.2212983787       -1.3446707186
 H         -1.8919481883        2.0070764277       -0.6781428720
 H         -3.1978814630        0.8126400772       -0.6859919225
 H         -2.4838184549        1.3418825786        0.8428121442
 H         -2.6903728950       -1.5983686419       -0.1009140246
 H         -1.9973395396       -1.0708558916        1.4338791347
 H         -1.0549399580       -2.0883338499        0.3411267758
