 21

C      0.225000    -0.042000     1.754000
C      1.353000     0.919000     1.413000
C      2.117000     0.479000     0.173000
O      0.812000     2.218000     1.194000
C      1.730000     3.233000     1.573000
C      1.529000     4.454000     0.686000
C      1.533000     3.568000     3.046000
H     -0.318000     0.284000     2.647000
H     -0.482000    -0.111000     0.921000
H      0.607000    -1.054000     1.927000
H      2.042000     0.990000     2.261000
H      2.926000     1.177000    -0.064000
H      1.443000     0.419000    -0.688000
H      2.545000    -0.521000     0.308000
H      2.742000     2.839000     1.423000
H      2.221000     5.259000     0.951000
H      1.685000     4.189000    -0.365000
H      0.504000     4.833000     0.766000
H      2.226000     4.348000     3.375000
H      1.692000     2.676000     3.662000
H      0.508000     3.905000     3.238000
