23
 xtb: 6.7.1 (edcfbbe)
C           -2.44646266754745        0.84774395103773        0.52217834698564
C           -1.27776325626164       -0.10665020827187        0.26964993093685
C           -1.60891917966391       -1.06003615937861       -0.87850050502550
C            0.00036440814482        0.69862582077663       -0.00208762413663
C            1.27858506716541       -0.10762838439892       -0.27096662284765
C            2.44838529927706        0.84621771285530       -0.52049754718014
C            1.60659238504680       -1.06121321652712        0.87797636037739
H           -3.36275452861671        0.29821307418047        0.76378434701168
H           -2.23148379200362        1.52871604743872        1.35307612562935
H           -2.64587882428728        1.45669363358579       -0.36824566828803
H           -1.12821128916797       -0.70220747779788        1.18057666035680
H           -1.71475614321046       -0.50559143721961       -1.81951862920637
H           -0.83313493478610       -1.81857868048044       -1.02242273597306
H           -2.55275707023473       -1.58358148025122       -0.69076375584134
H            0.18768955842615        1.35876565200158        0.85803420126350
H           -0.18684821513397        1.35603249774252       -0.86432955638818
H            1.13085218994790       -0.70313357909436       -1.18224119574822
H            2.64676623363357        1.45378466724644        0.37097874168417
H            3.36464477313081        0.29647228142062       -0.76126377472916
H            2.23540286041882        1.52848710638630       -1.35072591079890
H            2.55257712694496       -1.58240217267667        0.69406482069901
H            1.70679590885403       -0.50723507326589        1.81999724520492
H            0.83183590342774       -1.82170727469498        1.01756861421718
