 xtb: 6.7.1 (edcfbbe)
          04112512403D

 18 17  0     0  0            999 V2000
   -2.2142    0.9210    0.1848 C   0  0  0  0  0  0  0  0  0  0  0  0
   -0.8573    0.6609   -0.4584 C   0  0  0  0  0  0  0  0  0  0  0  0
   -0.0354   -0.4102    0.2673 C   0  0  0  0  0  0  0  0  0  0  0  0
   -0.0624   -0.1989    1.3431 H   0  0  0  0  0  0  0  0  0  0  0  0
   -0.5826   -1.8148    0.0297 C   0  0  0  0  0  0  0  0  0  0  0  0
    1.4275   -0.3427   -0.1950 C   0  0  0  0  0  0  0  0  0  0  0  0
    2.0533    0.8882    0.0979 O   0  0  0  0  0  0  0  0  0  0  0  0
   -2.8411    0.0339    0.1474 H   0  0  0  0  0  0  0  0  0  0  0  0
   -2.0947    1.2152    1.2252 H   0  0  0  0  0  0  0  0  0  0  0  0
   -2.7291    1.7218   -0.3401 H   0  0  0  0  0  0  0  0  0  0  0  0
   -0.2794    1.5884   -0.4627 H   0  0  0  0  0  0  0  0  0  0  0  0
   -0.9969    0.3566   -1.4980 H   0  0  0  0  0  0  0  0  0  0  0  0
    0.0190   -2.5523    0.5558 H   0  0  0  0  0  0  0  0  0  0  0  0
   -0.5658   -2.0516   -1.0317 H   0  0  0  0  0  0  0  0  0  0  0  0
   -1.6053   -1.8924    0.3863 H   0  0  0  0  0  0  0  0  0  0  0  0
    1.4771   -0.4398   -1.2827 H   0  0  0  0  0  0  0  0  0  0  0  0
    1.9972   -1.1701    0.2500 H   0  0  0  0  0  0  0  0  0  0  0  0
    2.0729    1.0087    1.0574 H   0  0  0  0  0  0  0  0  0  0  0  0
  1  2  1  0  0  0  0
  2  3  1  0  0  0  0
  3  4  1  0  0  0  0
  3  5  1  0  0  0  0
  3  6  1  0  0  0  0
  6  7  1  0  0  0  0
  1  8  1  0  0  0  0
  1  9  1  0  0  0  0
  1 10  1  0  0  0  0
  2 11  1  0  0  0  0
  2 12  1  0  0  0  0
  5 13  1  0  0  0  0
  5 14  1  0  0  0  0
  5 15  1  0  0  0  0
  6 16  1  0  0  0  0
  6 17  1  0  0  0  0
  7 18  1  0  0  0  0
M  END
