 xtb: 6.7.1 (edcfbbe)
          04112511513D

 22 23  0     0  0            999 V2000
   -3.3265    0.7974    0.2401 C   0  0  0  0  0  0  0  0  0  0  0  0
   -2.6536    0.3164    1.3511 C   0  0  0  0  0  0  0  0  0  0  0  0
   -1.4749   -0.3919    1.1959 C   0  0  0  0  0  0  0  0  0  0  0  0
   -0.9581   -0.6266   -0.0724 C   0  0  0  0  0  0  0  0  0  0  0  0
   -1.6382   -0.1408   -1.1822 C   0  0  0  0  0  0  0  0  0  0  0  0
   -2.8171    0.5674   -1.0269 C   0  0  0  0  0  0  0  0  0  0  0  0
    0.3393   -1.3703   -0.2403 C   0  0  0  0  0  0  0  0  0  0  0  0
    1.4804   -0.4830   -0.1115 N   0  0  0  0  0  0  0  0  0  0  0  0
    1.4833    0.8804   -0.0729 C   0  0  0  0  0  0  0  0  0  0  0  0
    2.7932    1.2527    0.0294 C   0  0  0  0  0  0  0  0  0  0  0  0
    3.5911    0.1511    0.0514 N   0  0  0  0  0  0  0  0  0  0  0  0
    2.7726   -0.8664   -0.0350 C   0  0  0  0  0  0  0  0  0  0  0  0
   -4.2456    1.3500    0.3615 H   0  0  0  0  0  0  0  0  0  0  0  0
   -3.0478    0.4929    2.3404 H   0  0  0  0  0  0  0  0  0  0  0  0
   -0.9505   -0.7636    2.0640 H   0  0  0  0  0  0  0  0  0  0  0  0
   -1.2410   -0.3159   -2.1713 H   0  0  0  0  0  0  0  0  0  0  0  0
   -3.3376    0.9406   -1.8958 H   0  0  0  0  0  0  0  0  0  0  0  0
    0.4302   -2.1508    0.5213 H   0  0  0  0  0  0  0  0  0  0  0  0
    0.3749   -1.8430   -1.2278 H   0  0  0  0  0  0  0  0  0  0  0  0
    0.5850    1.4595   -0.1147 H   0  0  0  0  0  0  0  0  0  0  0  0
    3.2125    2.2369    0.0887 H   0  0  0  0  0  0  0  0  0  0  0  0
    3.0811   -1.8924   -0.0460 H   0  0  0  0  0  0  0  0  0  0  0  0
  1  2  4  0  0  0  0
  2  3  4  0  0  0  0
  3  4  4  0  0  0  0
  4  5  4  0  0  0  0
  1  6  4  0  0  0  0
  5  6  4  0  0  0  0
  4  7  1  0  0  0  0
  7  8  1  0  0  0  0
  8  9  4  0  0  0  0
  9 10  2  0  0  0  0
 10 11  4  0  0  0  0
  8 12  4  0  0  0  0
 11 12  2  0  0  0  0
  1 13  1  0  0  0  0
  2 14  1  0  0  0  0
  3 15  1  0  0  0  0
  5 16  1  0  0  0  0
  6 17  1  0  0  0  0
  7 18  1  0  0  0  0
  7 19  1  0  0  0  0
  9 20  1  0  0  0  0
 10 21  1  0  0  0  0
 12 22  1  0  0  0  0
M  END
