14
 xtb: 6.7.1 (edcfbbe)
C           -2.14874284279070       -0.12876051899038        0.74470885249435
C           -1.55118188346198       -0.13252644288539       -0.65960888364957
C           -0.24164859715603        0.64634713078416       -0.73854810509590
C            0.89210981268896       -0.01497024543686       -0.01194654865029
O            0.97615087964996       -1.20368278644312        0.24213879824715
O            1.87315041812951        0.86122836987652        0.31381433690244
H           -1.46684014703440       -0.58512580820549        1.47021513141457
H           -3.08884436243730       -0.68794230434891        0.77330370088842
H           -2.35575630366831        0.89460044100390        1.07580332726404
H           -1.38413440614687       -1.16066411689519       -0.99820669635498
H           -2.25797967679567        0.32118551414185       -1.36199559009797
H            0.09359867932195        0.74137872528314       -1.78085487854495
H           -0.35878613568699        1.66678990449947       -0.35951072453026
H            2.59809675470693        0.36388474674551        0.73095301282055
