 12

C      1.885000    -1.036000    -0.112000
C      2.921000    -1.631000     0.608000
C      2.878000    -1.652000     2.002000
C      1.800000    -1.079000     2.676000
C      0.764000    -0.484000     1.955000
C      0.807000    -0.463000     0.561000
Cl    -0.471000     0.271000    -0.328000
Cl     4.156000    -2.385000     2.891000
H      1.931000    -1.027000    -1.198000
H      3.755000    -2.074000     0.071000
H      1.754000    -1.088000     3.761000
H     -0.070000    -0.041000     2.493000
