  23
 
 C         -0.2640124469        2.3428084777        0.1964679639
 N         -0.1116662119        0.9401197566       -0.1138450761
 C         -1.1677051919        0.3586096266       -0.8910759752
 C         -2.2956250723       -0.2174079591       -0.0244405240
 F         -2.9865040201        0.7334201889        0.6225098360
 F         -3.1868569032       -0.8821986045       -0.7810992079
 F         -1.8619039113       -1.0750984932        0.9027666444
 C          1.1471556586        0.3452626728       -0.0964660263
 C          1.2713690045       -1.0463450225       -0.1349634259
 C          2.5155080357       -1.6447837257       -0.0996378612
 C          3.6658888123       -0.8792965361       -0.0142605981
 C          3.5527136664        0.4984375506        0.0369235815
 C          2.3129327218        1.1084260854       -0.0073483761
 H          0.3541281094        2.5914179964        1.0564287695
 H         -1.3022153301        2.5392884231        0.4621817552
 H          0.0113613634        2.9913698691       -0.6454638770
 H         -1.6340078951        1.1068483856       -1.5466205215
 H         -0.7927303035       -0.4601099355       -1.5117647876
 H          0.3935821030       -1.6729590864       -0.1628400439
 H          2.5837074213       -2.7223429947       -0.1287487737
 H          4.6360478308       -1.3508120579        0.0168085603
 H          4.4396320185        1.1117781591        0.1031879840
 H          2.2623940890        2.1849864429        0.0143420893
          23
        -41.49450790
 C         -0.5089442870       -2.2356005250        0.4568122390
 N         -0.1309224507       -0.9024400528        0.8744116104
 C         -1.2311431475       -0.0161256598        1.1197463464
 C         -2.0046819145        0.3853553073       -0.1490061072
 F         -2.7727392974       -0.6052415274       -0.6303855953
 F         -2.8323072132        1.4150004491        0.0987614562
 F         -1.1991545889        0.7653691216       -1.1469577401
 C          1.0749573369       -0.3653973933        0.3992830211
 C          1.8063474478       -0.9865499545       -0.6126462432
 C          3.0247171815       -0.4742260684       -1.0199328380
 C          3.5436314386        0.6653732301       -0.4340869469
 C          2.8288061987        1.2861336654        0.5762291437
 C          1.6144321122        0.7785885414        0.9922516505
 H         -0.8258489702       -2.2966733043       -0.5906100197
 H         -1.3345095081       -2.5721609287        1.0839200260
 H          0.3353565742       -2.9048530519        0.6133183499
 H         -1.9526800279       -0.4903912350        1.7937474430
 H         -0.8848546745        0.9137152448        1.5731052423
 H          1.4249634158       -1.8669897516       -1.1032821113
 H          3.5676259465       -0.9715469327       -1.8104006557
 H          4.4925270547        1.0648461976       -0.7573900599
 H          3.2224905402        2.1724297413        1.0519313518
 H          1.0963404159        1.2717626153        1.8011128922
