  26
 
 C         -3.9244965499       -0.3163526697        0.0008191051
 C         -3.7208559949        1.0562849676       -0.0017644441
 C         -2.4357791817        1.5645351261       -0.0039423716
 C         -1.3340271730        0.7118765007       -0.0034384823
 C         -1.5406398443       -0.6709685507        0.0001055717
 C         -2.8400836317       -1.1728071725        0.0018492926
 C         -0.4067390986       -1.6151466142        0.0025422787
 O         -0.5772003934       -2.8214061314        0.0041190933
 C          0.9461606891       -1.0165546181        0.0016537139
 C          2.0226659682       -1.8886337031        0.0014429486
 C          3.3246769311       -1.4009333783       -0.0031778670
 C          3.5496701701       -0.0479719948       -0.0065955749
 C          2.4804216665        0.8700658441       -0.0041915101
 C          1.1474622118        0.3792807175       -0.0009793399
 C          0.0216594197        1.3037462779       -0.0061911835
 O          0.1512433879        2.5291191384       -0.0133234761
 N          2.7364834328        2.1890562683        0.0008895353
 H         -4.9281517984       -0.7149250714        0.0022350561
 H         -4.5661086789        1.7285795035       -0.0021651673
 H         -2.2568623390        2.6296176706       -0.0063300229
 H         -2.9714592901       -2.2447045269        0.0042415768
 H          1.8240130426       -2.9490296548        0.0041201616
 H          4.1573046813       -2.0884259246       -0.0042470742
 H          4.5578632243        0.3418551380       -0.0107044530
 H          1.9439358867        2.8211095394       -0.0140176508
 H          3.6819917530        2.5243942021       -0.0265799877
          26
        -45.61236330
 C         -3.9270391489       -0.3115771538        0.0062455457
 C         -3.7200251277        1.0604944438        0.0069107189
 C         -2.4335407819        1.5653921333        0.0033438748
 C         -1.3340587650        0.7099995158       -0.0004792378
 C         -1.5441272712       -0.6723875498       -0.0010625632
 C         -2.8446925696       -1.1707892957        0.0020419952
 C         -0.4125046104       -1.6193896070       -0.0053009430
 O         -0.5858754857       -2.8251457321       -0.0123312368
 C          0.9416769972       -1.0239068177       -0.0007168714
 C          2.0160138966       -1.8984518419        0.0046214063
 C          3.3191796729       -1.4137048418        0.0092452125
 C          3.5475449734       -0.0613532408        0.0069695910
 C          2.4805353037        0.8594463995        0.0005150489
 C          1.1464345148        0.3714474236       -0.0021535351
 C          0.0229900739        1.2986306312       -0.0043001144
 O          0.1556671947        2.5237446755       -0.0069977556
 N          2.7394570480        2.1778685424       -0.0038866169
 H         -4.9317429591       -0.7077253739        0.0091197043
 H         -4.5635102171        1.7350026662        0.0102149830
 H         -2.2520189923        2.6300596330        0.0034214560
 H         -2.9793223940       -2.2423598695        0.0013940970
 H          1.8153964538       -2.9585451177        0.0055695337
 H          4.1503218552       -2.1030171109        0.0144802492
 H          4.5568214482        0.3257115240        0.0099668203
 H          1.9480048332        2.8116492116       -0.0048689867
 H          3.6865821141        2.5100677916        0.0031326772
