  26
 
 C          1.2900000000       -1.6870000000       -0.3520000000
 C          0.9560000000       -0.4630000000        0.2260000000
 C          1.8480000000        0.1680000000        1.0930000000
 C          3.0810000000       -0.4280000000        1.3840000000
 C          3.4160000000       -1.6540000000        0.8060000000
 C          2.5180000000       -2.2840000000       -0.0640000000
 C          4.7130000000       -2.2940000000        1.1040000000
 O          5.0080000000       -3.3690000000        0.5970000000
 C          5.6520000000       -1.6180000000        2.0240000000
 C          6.8850000000       -2.2140000000        2.3150000000
 C          7.7770000000       -1.5830000000        3.1820000000
 C          7.4420000000       -0.3590000000        3.7590000000
 C          6.2150000000        0.2380000000        3.4720000000
 C          5.3170000000       -0.3920000000        2.6020000000
 C          4.0190000000        0.2480000000        2.3040000000
 O          3.6910000000        1.3220000000        2.7910000000
 N          5.9470000000        1.4790000000        4.0950000000
 H          0.5940000000       -2.1760000000       -1.0260000000
 H          0.0000000000        0.0000000000        0.0000000000
 H          1.5620000000        1.1220000000        1.5280000000
 H          2.7550000000       -3.2380000000       -0.5270000000
 H          7.1680000000       -3.1670000000        1.8780000000
 H          8.7330000000       -2.0450000000        3.4070000000
 H          8.1490000000        0.1190000000        4.4330000000
 H          5.0990000000        1.9580000000        3.8760000000
 H          6.6510000000        1.8950000000        4.6680000000
