18
 xtb: 6.7.1 (edcfbbe)
C           -1.95526463516987        0.25721403542914       -0.80605183910484
C           -1.48498637543766       -0.54870280416789        0.40018648314954
C           -0.23505205641655        0.05225107570316        1.06564450189829
C            0.94520752053735        0.17276613061727        0.13729387929343
C            1.50152829861921        1.35541770470305       -0.14280440788176
C            1.45163835458433       -1.10555296582974       -0.46327806781837
H           -1.20431487994535        0.25606697543676       -1.60358898562236
H           -2.14250942304878        1.30138473231366       -0.52996082354826
H           -2.88224377884393       -0.15207566236884       -1.21965727468422
H           -2.28318460718927       -0.59191417033931        1.15069587154109
H           -1.28349700909935       -1.58448350449575        0.10151067943632
H           -0.48191062459939        1.04155141921496        1.46809531952320
H            0.04799862767687       -0.58632081633905        1.91406159905436
H            2.35750619362399        1.43549850023796       -0.80870763806942
H            1.11727970157379        2.27470198568378        0.29169533187414
H            0.69992176325061       -1.54989518732863       -1.12787365074970
H            2.36481578389270       -0.94404872711116       -1.04236009909142
H            1.65424949254599       -1.84915638688356        0.31781932405628
