  10
 
 C          0.2890000000        0.0200000000        1.0410000000
 C          1.5200000000        0.4730000000        1.5760000000
 C          1.4580000000        0.3170000000        2.9430000000
 N          0.2320000000       -0.2130000000        3.2490000000
 C         -0.4890000000       -0.3990000000        2.0980000000
 H         -0.0010000000        0.0000000000        0.0000000000
 H          2.3610000000        0.8690000000        1.0240000000
 H          2.1730000000        0.5360000000        3.7230000000
 H         -0.0920000000       -0.4340000000        4.1810000000
 H         -1.4870000000       -0.8130000000        2.1330000000
