14
 xtb: 6.7.1 (edcfbbe)
C           -1.43188578510078        0.13371126322525        0.59960104191973
C            0.07030762379926        0.32986102927258        0.49001174028418
C            0.79197309706195       -0.91601573864450        0.01560067134547
O            2.20204729137774       -0.62941008108378        0.03874638719561
O            0.31346633993735        1.43288334834005       -0.40107448418819
O           -2.06401140806319       -0.21411134883470       -0.64204087050044
H           -1.88545111905438        1.07663879616516        0.91965823534302
H           -1.63672145075984       -0.62288832722000        1.36805210498185
H            0.43573210104356        0.58031898910517        1.49978248649419
H            0.47454268531172       -1.17392014996065       -1.00353115185366
H            0.55449116451313       -1.75305117761654        0.68786697159545
H            2.65051999380840       -1.32188139001505       -0.46143135886464
H            1.27104962721871        1.48609685314646       -0.52442496339822
H           -1.88697846162169       -1.14674289686030       -0.81695429699429
