24
CONF1
C -3.6139437780 0.0306531303 -0.2392435831
C -2.2491422669 0.3240686815 0.3775944808
C -1.1392118861 -0.5435020213 -0.2153486793
C 0.2417989477 -0.2644331336 0.3704403109
C 1.3343204544 -1.2237395365 -0.1289963390
C 2.6320692425 -0.4655711923 0.1514956795
C 2.2950791136 0.9614506513 -0.3055515873
C 0.7962594370 1.1516368239 0.0427937202
H -3.6045819271 0.2199319175 -1.3186303900
H -3.8956918170 -1.0177471991 -0.0885051883
H -4.3982502832 0.6541360453 0.2024641959
H -2.0027316190 1.3839854436 0.2335139942
H -2.2914819072 0.1598736625 1.4626491140
H -1.3941665544 -1.6014980828 -0.0582079270
H -1.0985729768 -0.3899053372 -1.3039827778
H 0.1807042475 -0.3699982640 1.4629505119
H 1.2846941993 -2.2049055523 0.3548280689
H 1.2226063381 -1.3758276963 -1.2119560585
H 2.8399787099 -0.4795573434 1.2290799017
H 3.5033546649 -0.8834962436 -0.3630187096
H 2.9364241711 1.7181554485 0.1562222963
H 2.4371303442 1.0334883191 -1.3897233298
H 0.6644139078 1.8306026654 0.8907170620
H 0.2528073742 1.5895282071 -0.8021218841
24
CONF4
C -3.6107052212 -0.3390020630 -0.1936715622
C -2.1990663808 -0.5914440848 0.3291264886
C -1.1964090834 0.4488349035 -0.1690041820
C 0.2209836231 0.2608755815 0.3642821292
C 0.9122918812 -1.0426996912 -0.0651340098
C 2.3907461646 -0.7550763300 0.2030828384
C 2.5744647041 0.6826115775 -0.3142879879
C 1.1996478448 1.3698716252 -0.1016841163
H -4.3168748765 -1.0902147358 0.1751251936
H -3.9759593770 0.6457083587 0.1195229760
H -3.6338545063 -0.3683904790 -1.2890271074
H -2.2060864189 -0.5880312209 1.4274499724
H -1.8719270040 -1.5934091315 0.0239931645
H -1.1651466025 0.4279839477 -1.2685746690
H -1.5552456034 1.4498439401 0.1109755763
H 0.1827752677 0.2680852821 1.4633033435
H 0.5415980367 -1.9236668386 0.4683065501
H 0.7507385472 -1.2052029067 -1.1406676025
H 2.5772692644 -0.7948406894 1.2837106411
H 3.0680642735 -1.4688000766 -0.2767283177
H 3.3906526868 1.2065687356 0.1918813615
H 2.8198940646 0.6583468258 -1.3814611106
H 1.2519885039 2.1805602194 0.6316594029
H 0.8407204228 1.8106744682 -1.0388912456
24
CONF3
C -3.5910965023 -0.3323949314 -0.2556684338
C -2.1922037037 -0.6026246113 0.2920571657
C -1.1823250367 0.4636547188 -0.1306306359
C 0.2212667571 0.2528708224 0.4324935960
C 0.9039609386 -1.0488575013 -0.0281248837
C 2.3955759622 -0.7516678820 0.1362681189
C 2.5193857416 0.6738947459 -0.4171184571
C 1.2176340364 1.3798640348 0.0306089723
H -4.3027634519 -1.1024748120 0.0598332208
H -3.9695302522 0.6355028296 0.0923359646
H -3.5852042789 -0.3119316564 -1.3514265659
H -2.2274917551 -0.6495255871 1.3888875497
H -1.8516015824 -1.5880727378 -0.0499855944
H -1.1214759231 0.4936819575 -1.2288765700
H -1.5530794831 1.4489933975 0.1863394244
H 0.1501495072 0.2236714433 1.5286342633
H 0.5723800499 -1.9272273033 0.5344206412
H 0.6790212704 -1.2250710181 -1.0898315569
H 2.6600183669 -0.7677360726 1.2015764191
H 3.0418858798 -1.4692547575 -0.3796472840
H 3.4213796733 1.1895252957 -0.0735401824
H 2.5648432780 0.6303648495 -1.5114507285
H 1.4002051044 2.0489516992 0.8773901460
H 0.8026562396 1.9930758427 -0.7768299972
24
CONF2
C -3.5667369211 -0.0107625323 -0.3518831172
C -2.2268005714 0.3993028974 0.2542564285
C -1.1080674938 -0.5858834087 -0.0809592757
C 0.2448457805 -0.2171519012 0.5267026116
C 1.3659729510 -1.2477461544 0.1910613266
C 2.4760074247 -0.4545212867 -0.5231721631
C 2.3136900390 0.9652644094 0.0269520970
C 0.7929808976 1.1413960032 0.0312621064
H -4.3601674388 0.6983395605 -0.0933482882
H -3.5030185571 -0.0573860884 -1.4450937227
H -3.8725884728 -1.0007120794 0.0055175390
H -1.9555875167 1.4004117292 -0.1041004017
H -2.3220862052 0.4749644650 1.3459897672
H -1.4000912870 -1.5870057514 0.2663400367
H -0.9970297984 -0.6548771450 -1.1738010369
H 0.1238202459 -0.1668805367 1.6167994812
H 1.7555538082 -1.6951541578 1.1117221729
H 0.9838849217 -2.0672197149 -0.4273173720
H 3.4731880707 -0.8752325289 -0.3595558493
H 2.2943399578 -0.4420631697 -1.6050653820
H 2.7000705056 1.0143258330 1.0535027070
H 2.8354132882 1.7238407086 -0.5657829765
H 0.4555566248 1.9842846099 0.6423731847
H 0.4480540687 1.3187826443 -0.9970673160
24
CONF8
C -2.8382414263 0.3540088031 0.9087388122
C -2.3686662424 0.1795196072 -0.5341065717
C -1.1681470153 -0.7619437632 -0.6781239051
C 0.0818288450 -0.3248018221 0.0794932873
C 1.2984627894 -1.2308519004 -0.1458932321
C 2.4769819246 -0.4205153775 0.4169113201
C 2.0816635082 1.0694107419 0.2101502719
C 0.6327103527 1.0501268765 -0.3253781165
H -3.0581325409 -0.6165768072 1.3690044139
H -2.0800719604 0.8493288342 1.5241137438
H -3.7485004866 0.9607414596 0.9567685897
H -3.1965383073 -0.2138471145 -1.1371113728
H -2.1185412552 1.1599771258 -0.9592336861
H -1.4606075906 -1.7656761129 -0.3379581905
H -0.9107299204 -0.8541481042 -1.7428730252
H -0.1302038683 -0.3092489020 1.1588971282
H 1.1933233412 -2.2148621019 0.3232293071
H 1.4246114648 -1.3876401860 -1.2261672269
H 2.5958148862 -0.6328537422 1.4847627811
H 3.4245864285 -0.6730335065 -0.0682370693
H 2.1333070743 1.6124233154 1.1590690769
H 2.7566263419 1.5786071285 -0.4841958910
H 0.0339429358 1.8838568804 0.0545426010
H 0.6294565507 1.1164823745 -1.4220061503
24
CONF5
C -2.8804758180 0.2155227274 0.9189390514
C -2.3616233761 0.2613671949 -0.5170381330
C -1.1580076506 -0.6537197902 -0.7669294061
C 0.0726969267 -0.3306222474 0.0755609823
C 1.2849500669 -1.2254562108 -0.2132910551
C 2.4374404103 -0.4718920492 0.4535794275
C 2.1602568959 1.0032999134 0.0985584981
C 0.6270311706 1.0970034818 -0.1338904205
H -2.1471543105 0.6143723076 1.6275067299
H -3.7957306222 0.8071751764 1.0255606323
H -3.1098975549 -0.8133352177 1.2205025691
H -3.1694097771 -0.0285523727 -1.2005600131
H -2.0958190796 1.2942336543 -0.7766244868
H -1.4582796674 -1.6948237316 -0.5810180536
H -0.8751631829 -0.5916202198 -1.8273558562
H -0.1780849409 -0.4552331790 1.1384646320
H 1.1582849076 -2.2476454152 0.1594719721
H 1.4488292829 -1.2786669064 -1.2993555076
H 2.3823738802 -0.6164853025 1.5394460497
H 3.4262056854 -0.8074368539 0.1253566439
H 2.5058578452 1.6837091362 0.8821154164
H 2.6954729260 1.2728702519 -0.8175001001
H 0.1486754888 1.8200488077 0.5338924274
H 0.4159893279 1.4221020408 -1.1598574363
24
CONF7
C -2.8598823968 0.4275983026 0.8290267313
C -2.3537904933 0.1526446654 -0.5851317267
C -1.1525963343 -0.7973190377 -0.6379975188
C 0.0696715829 -0.3276822322 0.1465340577
C 1.2868171562 -1.2725573133 0.0071110797
C 2.5495876139 -0.3735296310 0.1043599066
C 2.0189454077 1.0505189314 0.3615205550
C 0.6268159202 1.0390703181 -0.2730699078
H -3.0779198391 -0.5079235996 1.3567988377
H -2.1234350600 0.9798801641 1.4213937678
H -3.7786769794 1.0229777668 0.8091349079
H -3.1667404784 -0.2798978893 -1.1812787793
H -2.0901696853 1.1015409027 -1.0690861263
H -1.4602465619 -1.7843184344 -0.2635226840
H -0.8560303361 -0.9405626572 -1.6866819015
H -0.1924644606 -0.2627753991 1.2116558668
H 1.2731302227 -2.0554807757 0.7715515229
H 1.2504615153 -1.7749925559 -0.9665845607
H 3.2398333101 -0.7022818084 0.8868975392
H 3.1012591428 -0.3981276321 -0.8410362126
H 1.9207243680 1.2282394194 1.4396256062
H 2.6761306755 1.8269109859 -0.0428282220
H -0.0001245693 1.8769764735 0.0486356280
H 0.7101647318 1.0797054048 -1.3688304152
24
CONF6
C -2.9754976219 0.3337128555 0.7223074151
C -2.2939544546 0.1808972760 -0.6360565424
C -1.0804839925 -0.7530857046 -0.6136670417
C 0.0613964648 -0.2983877069 0.2969938727
C 1.2931124398 -1.2534131423 0.2448002741
C 2.4790484423 -0.3913468207 -0.2253327388
C 2.1123876082 1.0146861833 0.2577369605
C 0.6198082391 1.0954820803 -0.0738956618
H -3.2561050178 -0.6437876893 1.1317892570
H -2.3226170836 0.8250321124 1.4510971822
H -3.8864075299 0.9356613977 0.6395831379
H -3.0209587622 -0.2070632778 -1.3604563127
H -1.9911919098 1.1689693474 -1.0061506398
H -1.4094103831 -1.7551285973 -0.3033900786
H -0.6849370424 -0.8554166962 -1.6344927632
H -0.3077777187 -0.2627797408 1.3287399439
H 1.4982018858 -1.6604365273 1.2406790066
H 1.1147516476 -2.1053694685 -0.4202503924
H 3.4416763558 -0.7478553061 0.1547666657
H 2.5344604793 -0.3907867042 -1.3211220519
H 2.2617517346 1.0871611043 1.3430397143
H 2.7030043703 1.8052303930 -0.2167597618
H 0.1027414508 1.9105737092 0.4426236625
H 0.5011160064 1.2608869011 -1.1536487254
24
CONF11
C -3.3194680945 -0.2708526848 -0.6787171103
C -2.1008313152 -0.5467027639 0.1985054457
C -0.9522019113 0.4212836524 -0.0847081550
C 0.2544075488 0.2623715318 0.8486710286
C 1.0201306314 -1.0541698189 0.6327398112
C 1.8682119349 -0.8043443009 -0.6304706376
C 2.1202946033 0.7283516572 -0.6621456922
C 1.3472930754 1.3021375205 0.5468413442
H -3.7087587732 0.7383447131 -0.5027589263
H -3.0616324116 -0.3467646771 -1.7413135426
H -4.1284337335 -0.9814558877 -0.4794490528
H -2.3835252545 -0.4688853732 1.2570466928
H -1.7675624540 -1.5796275725 0.0410341061
H -0.6334273060 0.3069333849 -1.1303813997
H -1.3291548365 1.4492720471 0.0098032832
H -0.0974381671 0.3496639982 1.8849168324
H 1.6769303673 -1.2264653789 1.4939304620
H 0.3692107630 -1.9287001305 0.5387507590
H 2.7998831574 -1.3772022528 -0.6104748694
H 1.3213768959 -1.1194924301 -1.5247194060
H 3.1858649687 0.9687022595 -0.6026927937
H 1.7502582978 1.1592187959 -1.5976951198
H 2.0153468288 1.3820652295 1.4124001632
H 0.9376274143 2.2995172941 0.3534542996
24
CONF9
C -3.3231555245 0.0683056197 -0.6784366696
C -2.1645910425 0.2908873055 0.2907586557
C -0.9086099576 -0.4767320376 -0.1200948961
C 0.2836904737 -0.2718086934 0.8232963064
C 1.4574125568 -1.2013106676 0.4769811362
C 2.1220454196 -0.5371029394 -0.7433434567
C 1.8528660853 0.9833259686 -0.5756025733
C 0.9351733336 1.1135765681 0.6634919738
H -3.0619315549 0.4135759832 -1.6852531582
H -3.5771237734 -0.9956202492 -0.7478934753
H -4.2222558733 0.6074697192 -0.3624767550
H -1.9427200202 1.3635027912 0.3516814067
H -2.4619215118 -0.0231312496 1.3002199841
H -1.1498981499 -1.5481909374 -0.1597023238
H -0.6272980279 -0.1854081491 -1.1419300279
H -0.0576289576 -0.4338885436 1.8541196189
H 2.1601778185 -1.2210863773 1.3188256146
H 1.1414100193 -2.2318633298 0.2821731363
H 3.1896863846 -0.7671452432 -0.8031938238
H 1.6639706021 -0.9042103247 -1.6672907755
H 2.7794896443 1.5486268545 -0.4396402835
H 1.3638604048 1.3876850588 -1.4671628777
H 1.5384145623 1.3289700473 1.5529519577
H 0.2058880298 1.9232858748 0.5623400990
24
CONF14
C -2.9897599932 0.1875162651 0.4867625185
C -2.0729640225 0.3766651999 -0.7198681105
C -0.8479234365 -0.5421856614 -0.7113183008
C 0.0421763581 -0.4457958784 0.5363932586
C 1.3098365091 -1.3028737622 0.3751308968
C 2.2806555878 -0.4304899521 -0.4556159866
C 1.7952660242 1.0334739729 -0.2682752447
C 0.6428682279 0.9525209215 0.7511495684
H -3.9082557589 0.7737781126 0.3795388208
H -3.2754628029 -0.8645981061 0.6004896642
H -2.5048176203 0.5022207416 1.4160443449
H -2.6414905914 0.1843882694 -1.6381171456
H -1.7544734171 1.4248659048 -0.7762314612
H -1.1877846876 -1.5834031914 -0.8023873020
H -0.2438263652 -0.3379206721 -1.6054442725
H -0.5356203553 -0.7647426303 1.4116438115
H 1.7395966313 -1.5029946201 1.3634041351
H 1.1037443830 -2.2702005776 -0.0958143255
H 3.3134941443 -0.5630146788 -0.1211087862
H 2.2519323801 -0.7127740239 -1.5121144578
H 2.5957942899 1.6950696297 0.0754646971
H 1.4329089723 1.4400257390 -1.2181709305
H 1.0430574356 1.0109310621 1.7707389669
H -0.0823871430 1.7644165893 0.6382292443
24
CONF15
C -2.9759801375 -0.4543457008 0.4883935312
C -2.0459820120 -0.5266889537 -0.7210754814
C -0.8954912063 0.4843188122 -0.6749796781
C 0.0127023528 0.3906915496 0.5589735624
C 0.7494781696 -0.9539497292 0.6739715780
C 1.9042164713 -0.8480619549 -0.3418241126
C 2.2294892656 0.6680209769 -0.4402207833
C 1.1905753585 1.3757309837 0.4600270383
H -2.4698415309 -0.7648869880 1.4081906763
H -3.3443675422 0.5673136197 0.6399842322
H -3.8452379894 -1.1070114578 0.3556140111
H -1.6458357337 -1.5439364067 -0.8141888405
H -2.6274260392 -0.3458270733 -1.6336277738
H -0.2887568825 0.3732857518 -1.5836495487
H -1.3172305283 1.4986719409 -0.7088816928
H -0.5853282738 0.5891403122 1.4559344945
H 1.1547451089 -1.0475107561 1.6887895057
H 0.1087681590 -1.8233889174 0.4970605852
H 2.7707740367 -1.4389598822 -0.0306607188
H 1.5900758555 -1.2350619632 -1.3167298955
H 3.2505541891 0.8887764519 -0.1154906175
H 2.1453082648 1.0123019696 -1.4755409145
H 1.6111058977 1.5341192567 1.4599380315
H 0.8904193231 2.3546001794 0.0704445191
24
CONF10
C -3.3630292340 -0.2556701768 -0.6453841984
C -2.1656336227 -0.4744620622 0.2761616710
C -0.9747328906 0.4108667766 -0.0899567501
C 0.2556906746 0.1807264348 0.7986314849
C 0.9972414651 -1.1304022451 0.4445981446
C 2.1274405704 -0.7366637999 -0.5501066289
C 2.0452859037 0.7967546948 -0.7007608403
C 1.3376740759 1.2512382390 0.5798473239
H -4.2125971848 -0.8834373414 -0.3566830584
H -3.6936748915 0.7888565934 -0.6174182137
H -3.1069724725 -0.4956107793 -1.6835898849
H -2.4567502794 -0.2675457688 1.3146090082
H -1.8683987000 -1.5303102967 0.2420111369
H -0.7090219883 0.2391355062 -1.1425283612
H -1.2829369748 1.4629304881 -0.0125953390
H -0.0782950792 0.1727679910 1.8441118921
H 1.4280830678 -1.5754299160 1.3472520006
H 0.3170759653 -1.8740803945 0.0180158132
H 3.1021909323 -1.0222772111 -0.1418599010
H 2.0247493115 -1.2451348849 -1.5132709086
H 3.0287262112 1.2591428220 -0.8306576563
H 1.4415087704 1.0656072282 -1.5744856105
H 2.0475857219 1.2291965924 1.4167668317
H 0.9256079445 2.2639705994 0.5144014788
24
CONF16
C -3.4660664296 -0.1854150678 -0.3545122870
C -1.9747470836 0.1144559542 -0.4868495443
C -1.2090441395 -0.2322312035 0.7917784488
C 0.3163052593 -0.1118326333 0.7128278691
C 1.0131554302 -1.1600622438 -0.1803803587
C 2.3725930420 -0.5297340720 -0.5893289433
C 2.3606695347 0.9032482674 -0.0057442939
C 0.8737081764 1.2150871123 0.1814898603
H -3.9076434370 0.3756841952 0.4770978087
H -4.0112834442 0.0834838840 -1.2652562173
H -3.6372448453 -1.2508754380 -0.1636928232
H -1.5663923554 -0.4457560060 -1.3370329581
H -1.8397253420 1.1771089533 -0.7208720761
H -1.5762556215 0.4143241475 1.6008259701
H -1.4604702525 -1.2609502230 1.0880051415
H 0.7075719932 -0.2359366134 1.7333065889
H 1.1324830574 -2.1143833915 0.3421498657
H 0.4049992339 -1.3549915540 -1.0703299983
H 3.2240731790 -1.1068196466 -0.2169097983
H 2.4635851453 -0.4945398895 -1.6795804343
H 2.8586225852 0.9166213174 0.9711946522
H 2.8772858615 1.6233270125 -0.6480257982
H 0.6859647640 2.0594425679 0.8539833223
H 0.4200545864 1.4485638056 -0.7903152621
