 xtb: 6.7.1 (edcfbbe)
          04112512403D

 18 17  0     0  0            999 V2000
   -1.7715    1.4523    0.3073 C   0  0  0  0  0  0  0  0  0  0  0  0
   -1.1453    0.3195   -0.4983 C   0  0  0  0  0  0  0  0  0  0  0  0
   -0.2517   -0.6043    0.3376 C   0  0  0  0  0  0  0  0  0  0  0  0
   -0.7800   -0.8710    1.2598 H   0  0  0  0  0  0  0  0  0  0  0  0
    0.0710   -1.8805   -0.4381 C   0  0  0  0  0  0  0  0  0  0  0  0
    1.0502    0.0942    0.7489 C   0  0  0  0  0  0  0  0  0  0  0  0
    1.7639    0.4979   -0.4033 O   0  0  0  0  0  0  0  0  0  0  0  0
   -1.0122    2.1294    0.6895 H   0  0  0  0  0  0  0  0  0  0  0  0
   -2.4488    2.0257   -0.3207 H   0  0  0  0  0  0  0  0  0  0  0  0
   -2.3355    1.0551    1.1487 H   0  0  0  0  0  0  0  0  0  0  0  0
   -0.5473    0.7316   -1.3129 H   0  0  0  0  0  0  0  0  0  0  0  0
   -1.9438   -0.2810   -0.9390 H   0  0  0  0  0  0  0  0  0  0  0  0
   -0.8429   -2.3937   -0.7257 H   0  0  0  0  0  0  0  0  0  0  0  0
    0.6716   -2.5543    0.1685 H   0  0  0  0  0  0  0  0  0  0  0  0
    0.6308   -1.6305   -1.3359 H   0  0  0  0  0  0  0  0  0  0  0  0
    1.6549   -0.6057    1.3424 H   0  0  0  0  0  0  0  0  0  0  0  0
    0.8201    0.9651    1.3765 H   0  0  0  0  0  0  0  0  0  0  0  0
    2.5900    0.9179   -0.1335 H   0  0  0  0  0  0  0  0  0  0  0  0
  1  2  1  0  0  0  0
  2  3  1  0  0  0  0
  3  4  1  0  0  0  0
  3  5  1  0  0  0  0
  3  6  1  0  0  0  0
  6  7  1  0  0  0  0
  1  8  1  0  0  0  0
  1  9  1  0  0  0  0
  1 10  1  0  0  0  0
  2 11  1  0  0  0  0
  2 12  1  0  0  0  0
  5 13  1  0  0  0  0
  5 14  1  0  0  0  0
  5 15  1  0  0  0  0
  6 16  1  0  0  0  0
  6 17  1  0  0  0  0
  7 18  1  0  0  0  0
M  END
