  22
 
 C         -1.4370000000       -1.5820000000        0.2690000000
 C         -2.7270000000       -1.9050000000        0.6890000000
 C         -3.5800000000       -0.9100000000        1.1630000000
 C         -3.1490000000        0.4150000000        1.2200000000
 C         -1.8580000000        0.7400000000        0.8000000000
 C         -1.0040000000       -0.2570000000        0.3260000000
 Cl         0.6060000000        0.0870000000       -0.2050000000
 Cl        -1.3750000000        2.3980000000        0.8910000000
 O         -4.8560000000       -1.1830000000        1.5850000000
 C         -5.2390000000       -2.4980000000        1.5120000000
 C         -4.3860000000       -3.4940000000        1.0380000000
 C         -4.8170000000       -4.8180000000        0.9820000000
 C         -6.1070000000       -5.1430000000        1.4010000000
 C         -6.9620000000       -4.1460000000        1.8750000000
 C         -6.5290000000       -2.8210000000        1.9320000000
 Cl        -7.5650000000       -1.5540000000        2.5150000000
 Cl        -8.5740000000       -4.5510000000        2.3990000000
 Cl        -6.6460000000       -6.7990000000        1.3310000000
 Cl        -3.7250000000       -6.0330000000        0.3860000000
 O         -3.1090000000       -3.2200000000        0.6160000000
 H         -0.7790000000       -2.3660000000       -0.1000000000
 H         -3.8230000000        1.1830000000        1.5910000000
