 xtb: 6.7.1 (edcfbbe)
          04112511033D

 23 22  0     0  0            999 V2000
    1.8859    1.2234    0.9766 C   0  0  0  0  0  0  0  0  0  0  0  0
    1.5511    0.1205   -0.0226 C   0  0  0  0  0  0  0  0  0  0  0  0
    0.0786   -0.3408   -0.0574 C   0  0  0  0  0  0  0  0  0  0  0  0
   -0.0203   -1.4588   -1.1020 C   0  0  0  0  0  0  0  0  0  0  0  0
   -0.3313   -0.9011    1.3074 C   0  0  0  0  0  0  0  0  0  0  0  0
   -0.8204    0.8456   -0.4520 C   0  0  0  0  0  0  0  0  0  0  0  0
   -2.2894    0.5072   -0.6877 C   0  0  0  0  0  0  0  0  0  0  0  0
    1.6447    0.9198    1.9914 H   0  0  0  0  0  0  0  0  0  0  0  0
    1.3495    2.1405    0.7493 H   0  0  0  0  0  0  0  0  0  0  0  0
    2.9514    1.4389    0.9338 H   0  0  0  0  0  0  0  0  0  0  0  0
    1.8274    0.4621   -1.0235 H   0  0  0  0  0  0  0  0  0  0  0  0
    2.1729   -0.7489    0.2060 H   0  0  0  0  0  0  0  0  0  0  0  0
   -1.0125   -1.9008   -1.1087 H   0  0  0  0  0  0  0  0  0  0  0  0
    0.6959   -2.2463   -0.8772 H   0  0  0  0  0  0  0  0  0  0  0  0
    0.1959   -1.0744   -2.0965 H   0  0  0  0  0  0  0  0  0  0  0  0
    0.4015   -1.6279    1.6511 H   0  0  0  0  0  0  0  0  0  0  0  0
   -0.4083   -0.1096    2.0482 H   0  0  0  0  0  0  0  0  0  0  0  0
   -1.2944   -1.4006    1.2430 H   0  0  0  0  0  0  0  0  0  0  0  0
   -0.7696    1.5968    0.3381 H   0  0  0  0  0  0  0  0  0  0  0  0
   -0.4173    1.2963   -1.3627 H   0  0  0  0  0  0  0  0  0  0  0  0
   -2.8413    1.4199   -0.9025 H   0  0  0  0  0  0  0  0  0  0  0  0
   -2.4105   -0.1642   -1.5331 H   0  0  0  0  0  0  0  0  0  0  0  0
   -2.7312    0.0461    0.1914 H   0  0  0  0  0  0  0  0  0  0  0  0
  1  2  1  0  0  0  0
  2  3  1  0  0  0  0
  3  4  1  0  0  0  0
  3  5  1  0  0  0  0
  3  6  1  0  0  0  0
  6  7  1  0  0  0  0
  1  8  1  0  0  0  0
  1  9  1  0  0  0  0
  1 10  1  0  0  0  0
  2 11  1  0  0  0  0
  2 12  1  0  0  0  0
  4 13  1  0  0  0  0
  4 14  1  0  0  0  0
  4 15  1  0  0  0  0
  5 16  1  0  0  0  0
  5 17  1  0  0  0  0
  5 18  1  0  0  0  0
  6 19  1  0  0  0  0
  6 20  1  0  0  0  0
  7 21  1  0  0  0  0
  7 22  1  0  0  0  0
  7 23  1  0  0  0  0
M  END
