  12
 
 C         -2.3482013758       -0.0001117621       -0.0002857659
 C         -1.6546677750       -1.1987099339       -0.0001788240
 C         -0.2705076672       -1.2062405761        0.0001151769
 C          0.4110544991        0.0000868075        0.0003790882
 C         -0.2706948117        1.2062865679        0.0001963978
 C         -1.6548534013        1.1986099468       -0.0001238488
 Cl         2.1417638122        0.0001951720        0.0002715655
 H         -3.4276442540       -0.0001765902       -0.0001906160
 H         -2.1910383884       -2.1358237935       -0.0002673247
 H          0.2777351112       -2.1352220000       -0.0000616859
 H          0.2774037779        2.1353673399        0.0002691732
 H         -2.1913896458        2.1356158815        0.0000965497
          12
        -19.93246126
 C         -2.3401809409       -0.0000292814        0.0005775364
 C         -1.6467591139       -1.1987220496        0.0000441795
 C         -0.2626315513       -1.2060360527       -0.0005665202
 C          0.4189853973       -0.0000145679       -0.0008299817
 C         -0.2628679876        1.2059521723       -0.0004823368
 C         -1.6469569127        1.1986439084        0.0001711131
 Cl         2.1499568223        0.0000718172        0.0003496485
 H         -3.4194659286        0.0000882916        0.0011201203
 H         -2.1832028557       -2.1355689417        0.0006638742
 H          0.2846928935       -2.1356316012       -0.0001943912
 H          0.2843324115        2.1356289009       -0.0008034885
 H         -2.1836810448        2.1354105060       -0.0001432212
