 xtb: 6.7.1 (edcfbbe)
          04112512173D

 18 17  0     0  0            999 V2000
   -2.3215    0.4306    0.5027 C   0  0  0  0  0  0  0  0  0  0  0  0
   -0.9862    0.6878   -0.1892 C   0  0  0  0  0  0  0  0  0  0  0  0
    0.0628   -0.3913    0.1058 C   0  0  0  0  0  0  0  0  0  0  0  0
    1.4584    0.0140   -0.3827 C   0  0  0  0  0  0  0  0  0  0  0  0
    2.1426    1.0344    0.5168 C   0  0  0  0  0  0  0  0  0  0  0  0
   -0.2478   -1.6168   -0.5423 O   0  0  0  0  0  0  0  0  0  0  0  0
   -2.1810    0.3378    1.5777 H   0  0  0  0  0  0  0  0  0  0  0  0
   -3.0021    1.2572    0.3159 H   0  0  0  0  0  0  0  0  0  0  0  0
   -2.7914   -0.4780    0.1332 H   0  0  0  0  0  0  0  0  0  0  0  0
   -1.1312    0.7363   -1.2705 H   0  0  0  0  0  0  0  0  0  0  0  0
   -0.5928    1.6480    0.1441 H   0  0  0  0  0  0  0  0  0  0  0  0
    0.1070   -0.5642    1.1944 H   0  0  0  0  0  0  0  0  0  0  0  0
    2.0586   -0.8971   -0.4257 H   0  0  0  0  0  0  0  0  0  0  0  0
    1.3747    0.4005   -1.3998 H   0  0  0  0  0  0  0  0  0  0  0  0
    1.5870    1.9680    0.5462 H   0  0  0  0  0  0  0  0  0  0  0  0
    2.2275    0.6516    1.5311 H   0  0  0  0  0  0  0  0  0  0  0  0
    3.1411    1.2446    0.1433 H   0  0  0  0  0  0  0  0  0  0  0  0
   -1.1275   -1.9053   -0.2656 H   0  0  0  0  0  0  0  0  0  0  0  0
  1  2  1  0  0  0  0
  2  3  1  0  0  0  0
  3  4  1  0  0  0  0
  4  5  1  0  0  0  0
  3  6  1  0  0  0  0
  1  7  1  0  0  0  0
  1  8  1  0  0  0  0
  1  9  1  0  0  0  0
  2 10  1  0  0  0  0
  2 11  1  0  0  0  0
  3 12  1  0  0  0  0
  4 13  1  0  0  0  0
  4 14  1  0  0  0  0
  5 15  1  0  0  0  0
  5 16  1  0  0  0  0
  5 17  1  0  0  0  0
  6 18  1  0  0  0  0
M  END
