17
 xtb: 6.7.1 (edcfbbe)
C           -2.26073133490236        0.42725811942408       -1.06468642696370
C           -1.82939675665160        0.34641415837737        0.40728783857521
C           -0.44203228628297       -0.21996888070775        0.49638150745177
O           -0.18347341132757       -1.40788779641775        0.61022100408050
O            0.49722952789054        0.74011137642237        0.38777644512893
C            1.89384237943145        0.30469792034883        0.32517745645330
C            2.25864299253465       -0.12490166193065       -1.07699700343507
H           -2.23988050627244       -0.56196033304903       -1.53131044497383
H           -3.27989800311865        0.81670358251763       -1.13070165603556
H           -1.60141419586621        1.09246993190266       -1.62966139300731
H           -2.49855831007034       -0.31625144011115        0.96110689596142
H           -1.85298040668577        1.34026810986420        0.86154163173470
H            2.45722622567212        1.18754029954206        0.63281742353300
H            2.04744235472760       -0.49288691939841        1.05618394000980
H            3.32118148480978       -0.38631938823461       -1.10511612572606
H            1.68227251459115       -0.99996868842899       -1.38945076011837
H            2.08627523420663        0.68785527714984       -1.78849512936354
