 xtb: 6.7.1 (edcfbbe)
          04112512393D

 17 16  0     0  0            999 V2000
   -2.2082    0.8601    0.7316 C   0  0  0  0  0  0  0  0  0  0  0  0
   -1.8009    0.3997   -0.6628 C   0  0  0  0  0  0  0  0  0  0  0  0
   -0.9129   -0.8504   -0.6119 C   0  0  0  0  0  0  0  0  0  0  0  0
    0.4038   -0.5559    0.0573 C   0  0  0  0  0  0  0  0  0  0  0  0
    0.7943   -1.0638    1.0881 O   0  0  0  0  0  0  0  0  0  0  0  0
    1.1117    0.3415   -0.6200 O   0  0  0  0  0  0  0  0  0  0  0  0
    2.3818    0.7207   -0.0870 C   0  0  0  0  0  0  0  0  0  0  0  0
   -1.3307    1.0933    1.3321 H   0  0  0  0  0  0  0  0  0  0  0  0
   -2.8307    1.7488    0.6715 H   0  0  0  0  0  0  0  0  0  0  0  0
   -2.7670    0.0797    1.2429 H   0  0  0  0  0  0  0  0  0  0  0  0
   -1.2595    1.1971   -1.1736 H   0  0  0  0  0  0  0  0  0  0  0  0
   -2.6941    0.1661   -1.2431 H   0  0  0  0  0  0  0  0  0  0  0  0
   -0.7035   -1.1865   -1.6279 H   0  0  0  0  0  0  0  0  0  0  0  0
   -1.4054   -1.6485   -0.0568 H   0  0  0  0  0  0  0  0  0  0  0  0
    3.0180   -0.1584    0.0229 H   0  0  0  0  0  0  0  0  0  0  0  0
    2.2530    1.1879    0.8902 H   0  0  0  0  0  0  0  0  0  0  0  0
    2.8022    1.4212   -0.8015 H   0  0  0  0  0  0  0  0  0  0  0  0
  1  2  1  0  0  0  0
  2  3  1  0  0  0  0
  3  4  1  0  0  0  0
  4  5  2  0  0  0  0
  4  6  1  0  0  0  0
  6  7  1  0  0  0  0
  1  8  1  0  0  0  0
  1  9  1  0  0  0  0
  1 10  1  0  0  0  0
  2 11  1  0  0  0  0
  2 12  1  0  0  0  0
  3 13  1  0  0  0  0
  3 14  1  0  0  0  0
  7 15  1  0  0  0  0
  7 16  1  0  0  0  0
  7 17  1  0  0  0  0
M  END
