 xtb: 6.7.1 (edcfbbe)
          04112511503D

 17 16  0     0  0            999 V2000
    2.1198   -0.3159   -0.5799 C   0  0  0  0  0  0  0  0  0  0  0  0
    1.3642    0.4930    0.4687 C   0  0  0  0  0  0  0  0  0  0  0  0
   -0.0504   -0.0271    0.7282 C   0  0  0  0  0  0  0  0  0  0  0  0
   -0.9961    0.1635   -0.4563 C   0  0  0  0  0  0  0  0  0  0  0  0
   -2.4166   -0.2725   -0.1160 C   0  0  0  0  0  0  0  0  0  0  0  0
    3.1419    0.0448   -0.6689 H   0  0  0  0  0  0  0  0  0  0  0  0
    1.6455   -0.2321   -1.5540 H   0  0  0  0  0  0  0  0  0  0  0  0
    2.1497   -1.3665   -0.2994 H   0  0  0  0  0  0  0  0  0  0  0  0
    1.9232    0.4612    1.4069 H   0  0  0  0  0  0  0  0  0  0  0  0
    1.3106    1.5372    0.1519 H   0  0  0  0  0  0  0  0  0  0  0  0
   -0.4634    0.5009    1.5916 H   0  0  0  0  0  0  0  0  0  0  0  0
   -0.0022   -1.0884    0.9835 H   0  0  0  0  0  0  0  0  0  0  0  0
   -0.9997    1.2168   -0.7466 H   0  0  0  0  0  0  0  0  0  0  0  0
   -0.6407   -0.4167   -1.3092 H   0  0  0  0  0  0  0  0  0  0  0  0
   -2.8060    0.3106    0.7158 H   0  0  0  0  0  0  0  0  0  0  0  0
   -2.4344   -1.3231    0.1656 H   0  0  0  0  0  0  0  0  0  0  0  0
   -3.0746   -0.1345   -0.9705 H   0  0  0  0  0  0  0  0  0  0  0  0
  1  2  1  0  0  0  0
  2  3  1  0  0  0  0
  3  4  1  0  0  0  0
  4  5  1  0  0  0  0
  1  6  1  0  0  0  0
  1  7  1  0  0  0  0
  1  8  1  0  0  0  0
  2  9  1  0  0  0  0
  2 10  1  0  0  0  0
  3 11  1  0  0  0  0
  3 12  1  0  0  0  0
  4 13  1  0  0  0  0
  4 14  1  0  0  0  0
  5 15  1  0  0  0  0
  5 16  1  0  0  0  0
  5 17  1  0  0  0  0
M  END
