 xtb: 6.7.1 (edcfbbe)
          04112512173D

 18 17  0     0  0            999 V2000
   -1.7571    0.9222   -0.3799 C   0  0  0  0  0  0  0  0  0  0  0  0
   -1.0377    0.2322    0.7733 C   0  0  0  0  0  0  0  0  0  0  0  0
    0.1429   -0.6394    0.3269 C   0  0  0  0  0  0  0  0  0  0  0  0
    1.2046    0.1085   -0.4897 C   0  0  0  0  0  0  0  0  0  0  0  0
    1.8549    1.2516    0.2794 C   0  0  0  0  0  0  0  0  0  0  0  0
   -0.3994   -1.7221   -0.4156 O   0  0  0  0  0  0  0  0  0  0  0  0
   -2.6714    1.3872   -0.0202 H   0  0  0  0  0  0  0  0  0  0  0  0
   -1.1357    1.6928   -0.8278 H   0  0  0  0  0  0  0  0  0  0  0  0
   -2.0158    0.1904   -1.1410 H   0  0  0  0  0  0  0  0  0  0  0  0
   -0.6817    0.9680    1.4941 H   0  0  0  0  0  0  0  0  0  0  0  0
   -1.7411   -0.4287    1.2839 H   0  0  0  0  0  0  0  0  0  0  0  0
    0.6233   -1.0392    1.2380 H   0  0  0  0  0  0  0  0  0  0  0  0
    1.9784   -0.6100   -0.7747 H   0  0  0  0  0  0  0  0  0  0  0  0
    0.7486    0.4820   -1.4073 H   0  0  0  0  0  0  0  0  0  0  0  0
    2.2523    0.8938    1.2268 H   0  0  0  0  0  0  0  0  0  0  0  0
    2.6727    1.6711   -0.3009 H   0  0  0  0  0  0  0  0  0  0  0  0
    1.1401    2.0438    0.4827 H   0  0  0  0  0  0  0  0  0  0  0  0
    0.3194   -2.2839   -0.7335 H   0  0  0  0  0  0  0  0  0  0  0  0
  1  2  1  0  0  0  0
  2  3  1  0  0  0  0
  3  4  1  0  0  0  0
  4  5  1  0  0  0  0
  3  6  1  0  0  0  0
  1  7  1  0  0  0  0
  1  8  1  0  0  0  0
  1  9  1  0  0  0  0
  2 10  1  0  0  0  0
  2 11  1  0  0  0  0
  3 12  1  0  0  0  0
  4 13  1  0  0  0  0
  4 14  1  0  0  0  0
  5 15  1  0  0  0  0
  5 16  1  0  0  0  0
  5 17  1  0  0  0  0
  6 18  1  0  0  0  0
M  END
