 38

C     -2.518000    -5.506000    -1.260000
C     -3.209000    -4.350000    -0.568000
O     -3.247000    -3.230000    -1.458000
C     -3.847000    -2.106000    -0.964000
O     -4.340000    -1.988000     0.149000
C     -3.777000    -1.012000    -2.010000
C     -4.478000    -1.379000    -3.321000
H     -4.036000    -2.271000    -3.779000
C     -4.360000    -0.232000    -4.307000
O     -5.153000     0.693000    -4.425000
O     -3.239000    -0.416000    -5.070000
C     -3.008000     0.573000    -6.078000
C     -1.741000     0.218000    -6.820000
S     -6.244000    -1.760000    -3.051000
P     -6.822000    -2.886000    -4.755000
S     -8.680000    -3.506000    -4.863000
O     -6.376000    -2.031000    -6.075000
C     -6.235000    -2.674000    -7.331000
O     -5.755000    -4.115000    -4.910000
C     -5.602000    -5.067000    -3.870000
H     -2.471000    -6.380000    -0.605000
H     -3.047000    -5.779000    -2.178000
H     -1.499000    -5.228000    -1.550000
H     -2.665000    -4.063000     0.336000
H     -4.234000    -4.621000    -0.299000
H     -2.727000    -0.756000    -2.195000
H     -4.255000    -0.130000    -1.566000
H     -3.866000     0.581000    -6.751000
H     -2.917000     1.543000    -5.589000
H     -1.535000     0.957000    -7.600000
H     -0.887000     0.179000    -6.136000
H     -1.825000    -0.770000    -7.282000
H     -5.933000    -1.941000    -8.082000
H     -7.185000    -3.133000    -7.613000
H     -5.468000    -3.447000    -7.248000
H     -4.849000    -5.803000    -4.161000
H     -6.559000    -5.560000    -3.686000
H     -5.277000    -4.552000    -2.965000
