 xtb: 6.7.1 (edcfbbe)
          04112511053D

 20 19  0     0  0            999 V2000
   -1.6475   -1.2522   -0.5907 C   0  0  0  0  0  0  0  0  0  0  0  0
   -1.3902    0.0087    0.2258 C   0  0  0  0  0  0  0  0  0  0  0  0
   -0.0093    0.6335   -0.0101 C   0  0  0  0  0  0  0  0  0  0  0  0
    0.0721    1.9686    0.7319 C   0  0  0  0  0  0  0  0  0  0  0  0
    1.1392   -0.2959    0.4258 C   0  0  0  0  0  0  0  0  0  0  0  0
    1.8190   -1.0028   -0.7426 C   0  0  0  0  0  0  0  0  0  0  0  0
   -2.6685   -1.5948   -0.4373 H   0  0  0  0  0  0  0  0  0  0  0  0
   -1.5092   -1.0536   -1.6513 H   0  0  0  0  0  0  0  0  0  0  0  0
   -0.9751   -2.0534   -0.2963 H   0  0  0  0  0  0  0  0  0  0  0  0
   -1.4996   -0.2195    1.2890 H   0  0  0  0  0  0  0  0  0  0  0  0
   -2.1514    0.7502   -0.0295 H   0  0  0  0  0  0  0  0  0  0  0  0
    0.0941    0.8350   -1.0822 H   0  0  0  0  0  0  0  0  0  0  0  0
    1.0220    2.4596    0.5338 H   0  0  0  0  0  0  0  0  0  0  0  0
   -0.0183    1.8106    1.8047 H   0  0  0  0  0  0  0  0  0  0  0  0
   -0.7284    2.6337    0.4152 H   0  0  0  0  0  0  0  0  0  0  0  0
    1.8943    0.2910    0.9532 H   0  0  0  0  0  0  0  0  0  0  0  0
    0.7615   -1.0387    1.1310 H   0  0  0  0  0  0  0  0  0  0  0  0
    2.6129   -1.6527   -0.3805 H   0  0  0  0  0  0  0  0  0  0  0  0
    2.2580   -0.2741   -1.4209 H   0  0  0  0  0  0  0  0  0  0  0  0
    1.1110   -1.6067   -1.3032 H   0  0  0  0  0  0  0  0  0  0  0  0
  1  2  1  0  0  0  0
  2  3  1  0  0  0  0
  3  4  1  0  0  0  0
  3  5  1  0  0  0  0
  5  6  1  0  0  0  0
  1  7  1  0  0  0  0
  1  8  1  0  0  0  0
  1  9  1  0  0  0  0
  2 10  1  0  0  0  0
  2 11  1  0  0  0  0
  3 12  1  0  0  0  0
  4 13  1  0  0  0  0
  4 14  1  0  0  0  0
  4 15  1  0  0  0  0
  5 16  1  0  0  0  0
  5 17  1  0  0  0  0
  6 18  1  0  0  0  0
  6 19  1  0  0  0  0
  6 20  1  0  0  0  0
M  END
