26
CONF1
C 0.0000373776 -2.5021874262 0.0003654787
C 0.0000285552 -1.1584664893 0.0001283127
C -1.2710618909 -0.3954242246 -0.0378365683
C -2.3929604018 -0.8274047433 0.6822690888
C -3.5956377277 -0.1322846918 0.6081578959
C -3.6991871986 1.0084245081 -0.1849652477
C -2.5881113159 1.4523561748 -0.8994210442
C -1.3832314710 0.7625797077 -0.8204071280
C 1.2710769126 -0.3953489631 0.0378384995
C 1.3831433508 0.7628344441 0.8201523258
C 2.5880200272 1.4526143752 0.8991911959
C 3.6991810182 1.0085513085 0.1849491793
C 3.5957364582 -0.1323325535 -0.6079382735
C 2.3930733247 -0.8274814194 -0.6820400860
H 0.9253094239 -3.0655208529 0.0679157363
H -0.9251868558 -3.0655354286 -0.0681928188
H -2.3132222896 -1.7041009703 1.3175948558
H -4.4513498358 -0.4764295599 1.1809000242
H -4.6370585161 1.5519136980 -0.2403750847
H -2.6598814299 2.3394433867 -1.5211603367
H -0.5232145574 1.1141896319 -1.3822701486
H 0.5230861705 1.1145036295 1.3819133533
H 2.6597203230 2.3398022480 1.5207955484
H 4.6370382364 1.5520660114 0.2403493638
H 4.4514997414 -0.4765460642 -1.1805635730
H 2.3134008699 -1.7042695584 -1.3172493105
26
CONF2
C -0.0603607974 -2.5424305721 -0.0231982564
C 0.0087574926 -1.2030356201 -0.0100124168
C -1.2602936752 -0.4234880315 -0.1260349195
C -2.0168648548 -0.1334696529 1.0121448024
C -3.2036393654 0.5880691393 0.9051799827
C -3.6437819614 1.0301252818 -0.3401072041
C -2.8926289929 0.7462749751 -1.4787085517
C -1.7056964999 0.0260695019 -1.3723538566
C 1.2687614220 -0.4327775635 0.1154893012
C 2.5145447959 -1.0634810082 0.2814187232
C 3.6805710401 -0.3202460498 0.3981426899
C 3.6401528553 1.0740418529 0.3540524875
C 2.4160886089 1.7139486410 0.1947640347
C 1.2448802779 0.9702997065 0.0786532355
H 0.8150693197 -3.1788451523 0.0516509417
H -1.0215070508 -3.0377334617 -0.1167114859
H -1.6718781079 -0.4754666242 1.9835841984
H -3.7848905604 0.8040578584 1.7963263598
H -4.5683669371 1.5926393186 -0.4233130737
H -3.2314134317 1.0851909263 -2.4528692400
H -1.1182056518 -0.1913300812 -2.2597447882
H 2.5795188512 -2.1449720908 0.3250240388
H 4.6295093322 -0.8318117338 0.5264828451
H 4.5545458116 1.6514026850 0.4455279773
H 2.3670424591 2.7978865412 0.1611938206
H 0.2994115227 1.4876324947 -0.0426821344
