  23
 
 C         -4.9620000000       -4.0690000000        3.8310000000
 C         -4.9950000000       -2.6690000000        3.7010000000
 C         -4.0210000000       -1.9920000000        2.9620000000
 C         -3.0200000000       -2.7370000000        2.3590000000
 C         -2.9930000000       -4.1430000000        2.4930000000
 C         -3.9540000000       -4.8190000000        3.2230000000
 C         -1.8090000000       -4.7230000000        1.7470000000
 C         -1.1660000000       -3.4780000000        1.1730000000
 C         -1.8950000000       -2.3270000000        1.5460000000
 C         -1.4870000000       -1.0710000000        1.1310000000
 C         -0.3400000000       -0.9760000000        0.3380000000
 C          0.3810000000       -2.1240000000       -0.0300000000
 C         -0.0300000000       -3.3910000000        0.3870000000
 H         -5.7320000000       -4.5710000000        4.4110000000
 H         -5.7900000000       -2.1070000000        4.1840000000
 H         -4.0590000000       -0.9120000000        2.8720000000
 H         -3.9290000000       -5.8990000000        3.3240000000
 H         -1.1270000000       -5.2290000000        2.4370000000
 H         -2.1440000000       -5.3910000000        0.9480000000
 H         -2.0330000000       -0.1750000000        1.4080000000
 H          0.0000000000        0.0000000000        0.0000000000
 H          1.2700000000       -2.0230000000       -0.6480000000
 H          0.5280000000       -4.2770000000        0.1030000000
