 xtb: 6.7.1 (edcfbbe)
          04112512003D

 22 21  0     0  0            999 V2000
    2.0123    1.5403   -0.3301 C   0  0  0  0  0  0  0  0  0  0  0  0
    1.2264    0.4556    0.4005 C   0  0  0  0  0  0  0  0  0  0  0  0
    2.0548   -0.8314    0.5179 C   0  0  0  0  0  0  0  0  0  0  0  0
   -0.0403    0.0934   -0.3509 C   0  0  0  0  0  0  0  0  0  0  0  0
   -0.1204    0.1671   -1.5596 O   0  0  0  0  0  0  0  0  0  0  0  0
   -1.2000   -0.3672    0.5113 C   0  0  0  0  0  0  0  0  0  0  0  0
   -2.0867   -1.3580   -0.2370 C   0  0  0  0  0  0  0  0  0  0  0  0
   -1.9926    0.8899    0.8960 C   0  0  0  0  0  0  0  0  0  0  0  0
    1.4400    2.4645   -0.3664 H   0  0  0  0  0  0  0  0  0  0  0  0
    2.2137    1.2261   -1.3516 H   0  0  0  0  0  0  0  0  0  0  0  0
    2.9554    1.7299    0.1746 H   0  0  0  0  0  0  0  0  0  0  0  0
    0.9626    0.7973    1.4049 H   0  0  0  0  0  0  0  0  0  0  0  0
    1.5024   -1.6044    1.0460 H   0  0  0  0  0  0  0  0  0  0  0  0
    2.3070   -1.2010   -0.4737 H   0  0  0  0  0  0  0  0  0  0  0  0
    2.9747   -0.6274    1.0588 H   0  0  0  0  0  0  0  0  0  0  0  0
   -0.8087   -0.8290    1.4217 H   0  0  0  0  0  0  0  0  0  0  0  0
   -1.5335   -2.2668   -0.4631 H   0  0  0  0  0  0  0  0  0  0  0  0
   -2.9563   -1.6149    0.3612 H   0  0  0  0  0  0  0  0  0  0  0  0
   -2.4187   -0.9209   -1.1759 H   0  0  0  0  0  0  0  0  0  0  0  0
   -2.3706    1.3778    0.0002 H   0  0  0  0  0  0  0  0  0  0  0  0
   -2.8344    0.6144    1.5251 H   0  0  0  0  0  0  0  0  0  0  0  0
   -1.3672    1.5952    1.4374 H   0  0  0  0  0  0  0  0  0  0  0  0
  1  2  1  0  0  0  0
  2  3  1  0  0  0  0
  2  4  1  0  0  0  0
  4  5  2  0  0  0  0
  4  6  1  0  0  0  0
  6  7  1  0  0  0  0
  6  8  1  0  0  0  0
  1  9  1  0  0  0  0
  1 10  1  0  0  0  0
  1 11  1  0  0  0  0
  2 12  1  0  0  0  0
  3 13  1  0  0  0  0
  3 14  1  0  0  0  0
  3 15  1  0  0  0  0
  6 16  1  0  0  0  0
  7 17  1  0  0  0  0
  7 18  1  0  0  0  0
  7 19  1  0  0  0  0
  8 20  1  0  0  0  0
  8 21  1  0  0  0  0
  8 22  1  0  0  0  0
M  END
