 xtb: 6.7.1 (edcfbbe)
          04112510483D

 18 17  0     0  0            999 V2000
   -1.9492   -0.0034    0.8163 C   0  0  0  0  0  0  0  0  0  0  0  0
   -1.5066    0.2910   -0.6115 C   0  0  0  0  0  0  0  0  0  0  0  0
   -0.1992   -0.4225   -0.9792 C   0  0  0  0  0  0  0  0  0  0  0  0
    0.9619    0.0271   -0.1277 C   0  0  0  0  0  0  0  0  0  0  0  0
    1.4800    1.2397   -0.2463 C   0  0  0  0  0  0  0  0  0  0  0  0
    1.4908   -0.9775    0.8490 C   0  0  0  0  0  0  0  0  0  0  0  0
   -2.8991    0.4826    1.0262 H   0  0  0  0  0  0  0  0  0  0  0  0
   -1.2123    0.3659    1.5257 H   0  0  0  0  0  0  0  0  0  0  0  0
   -2.0718   -1.0741    0.9655 H   0  0  0  0  0  0  0  0  0  0  0  0
   -2.2870   -0.0296   -1.3052 H   0  0  0  0  0  0  0  0  0  0  0  0
   -1.3730    1.3676   -0.7320 H   0  0  0  0  0  0  0  0  0  0  0  0
   -0.3394   -1.4990   -0.8697 H   0  0  0  0  0  0  0  0  0  0  0  0
    0.0218   -0.2150   -2.0288 H   0  0  0  0  0  0  0  0  0  0  0  0
    2.3012    1.5726    0.3658 H   0  0  0  0  0  0  0  0  0  0  0  0
    1.1040    1.9513   -0.9624 H   0  0  0  0  0  0  0  0  0  0  0  0
    2.2814   -0.5515    1.4612 H   0  0  0  0  0  0  0  0  0  0  0  0
    0.6923   -1.3328    1.4979 H   0  0  0  0  0  0  0  0  0  0  0  0
    1.8892   -1.8386    0.3130 H   0  0  0  0  0  0  0  0  0  0  0  0
  1  2  1  0  0  0  0
  2  3  1  0  0  0  0
  3  4  1  0  0  0  0
  4  5  2  0  0  0  0
  4  6  1  0  0  0  0
  1  7  1  0  0  0  0
  1  8  1  0  0  0  0
  1  9  1  0  0  0  0
  2 10  1  0  0  0  0
  2 11  1  0  0  0  0
  3 12  1  0  0  0  0
  3 13  1  0  0  0  0
  5 14  1  0  0  0  0
  5 15  1  0  0  0  0
  6 16  1  0  0  0  0
  6 17  1  0  0  0  0
  6 18  1  0  0  0  0
M  END
