26
 xtb: 6.7.1 (edcfbbe)
C           -2.47447742951637        0.28789640249737        0.60759581000064
C           -1.16105450871951       -0.31596357021423        0.09219524673243
C           -1.34519756808217       -0.67915027262339       -1.38460297423068
C            0.03551571965019        0.63198937178482        0.34794787598349
C            0.11934961926838        1.01130966361488        1.83386648322046
C            1.42688956788811        0.10812297216498       -0.11498846243382
C            1.67646143886675       -1.35863010899128        0.24514497949754
C            1.75342438874006        0.37564188266668       -1.58870801122179
H           -2.64855103500118        1.27436271539609        0.15863582360224
H           -3.31881180463780       -0.35458390728756        0.33540506458240
H           -2.48832081342928        0.40323754448500        1.69420064359531
H           -0.97838960699294       -1.24384230360216        0.65341423550459
H           -0.51986084982237       -1.27381845185250       -1.78028097674943
H           -1.43836661444428        0.22546351069152       -1.99866134900756
H           -2.26183481216598       -1.26492335113361       -1.51658004291396
H           -0.16404401495079        1.55501709333584       -0.21929164248251
H           -0.76681421935047        1.55233574713899        2.17388396063281
H            0.98534135395556        1.65560933381824        2.01803303727156
H            0.22670657630393        0.11836727344336        2.46235956123096
H            2.15616308750886        0.69886357890692        0.45667026427706
H            1.47488444621395       -1.55546462322780        1.30358784866406
H            1.05103575868884       -2.03374492361704       -0.34861824171617
H            2.72190207043940       -1.62434539651363        0.05237400768171
H            1.17440708254629       -0.24896491311958       -2.27343982629176
H            2.81353605987893        0.17063466288243       -1.77889255605183
H            1.56618271493040        1.42374240243296       -1.84844661045748
