 xtb: 6.7.1 (edcfbbe)
          04072508503D

 19 19  0     0  0            999 V2000
   -2.5269    0.0671   -0.5423 C   0  0  0  0  0  0  0  0  0  0  0  0
   -1.9429   -1.1621   -0.2836 C   0  0  0  0  0  0  0  0  0  0  0  0
   -0.6735   -1.2258    0.2610 C   0  0  0  0  0  0  0  0  0  0  0  0
    0.0316   -0.0647    0.5568 C   0  0  0  0  0  0  0  0  0  0  0  0
   -0.5634    1.1618    0.2954 C   0  0  0  0  0  0  0  0  0  0  0  0
   -1.8339    1.2287   -0.2504 C   0  0  0  0  0  0  0  0  0  0  0  0
    1.4255   -0.1503    1.1110 C   0  0  0  0  0  0  0  0  0  0  0  0
    2.4405   -0.4826    0.0052 C   0  0  0  0  0  0  0  0  0  0  0  0
    2.5424    0.5178   -0.9826 O   0  0  0  0  0  0  0  0  0  0  0  0
   -3.5176    0.1180   -0.9686 H   0  0  0  0  0  0  0  0  0  0  0  0
   -2.4788   -2.0727   -0.5076 H   0  0  0  0  0  0  0  0  0  0  0  0
   -0.2225   -2.1872    0.4620 H   0  0  0  0  0  0  0  0  0  0  0  0
   -0.0323    2.0746    0.5228 H   0  0  0  0  0  0  0  0  0  0  0  0
   -2.2834    2.1906   -0.4483 H   0  0  0  0  0  0  0  0  0  0  0  0
    1.7010    0.7965    1.5792 H   0  0  0  0  0  0  0  0  0  0  0  0
    1.4812   -0.9395    1.8619 H   0  0  0  0  0  0  0  0  0  0  0  0
    3.4243   -0.6704    0.4569 H   0  0  0  0  0  0  0  0  0  0  0  0
    2.1262   -1.3823   -0.5291 H   0  0  0  0  0  0  0  0  0  0  0  0
    2.8579    1.3349   -0.5723 H   0  0  0  0  0  0  0  0  0  0  0  0
  1  2  4  0  0  0  0
  2  3  4  0  0  0  0
  3  4  4  0  0  0  0
  4  5  4  0  0  0  0
  1  6  4  0  0  0  0
  5  6  4  0  0  0  0
  4  7  1  0  0  0  0
  7  8  1  0  0  0  0
  8  9  1  0  0  0  0
  1 10  1  0  0  0  0
  2 11  1  0  0  0  0
  3 12  1  0  0  0  0
  5 13  1  0  0  0  0
  6 14  1  0  0  0  0
  7 15  1  0  0  0  0
  7 16  1  0  0  0  0
  8 17  1  0  0  0  0
  8 18  1  0  0  0  0
  9 19  1  0  0  0  0
M  END
