  13
 
 C         -2.4135725717        0.0092551398       -0.0022530381
 C         -0.9789220122        0.5213280967        0.0004696998
 C          0.0251981593       -0.6363206510       -0.0001770850
 C          1.3908606022       -0.1541272634        0.0010329351
 C          2.5155768115        0.2540088334       -0.0008423826
 H         -3.1149127004        0.8404113545        0.0005167733
 H         -2.6032280338       -0.5956359019       -0.8869545047
 H         -2.6040926027       -0.6022215106        0.8777310586
 H         -0.8078621854        1.1446856153       -0.8800946445
 H         -0.8101424130        1.1416729785        0.8835938517
 H         -0.1301495748       -1.2589714482       -0.8866700917
 H         -0.1309708885       -1.2606507621        0.8849830747
 H          3.5024467701        0.6091636226        0.0015586875
          13
        -14.71099659
 C         -2.4081847456        0.0100232034       -0.0005034174
 C         -0.9725152529        0.5189704690        0.0005362963
 C          0.0299163079       -0.6401006736        0.0003515265
 C          1.3954896754       -0.1575058642       -0.0001285975
 C          2.5143632595        0.2663347511       -0.0002361142
 H         -2.5996289677       -0.5997480540        0.8804610856
 H         -3.1075578379        0.8428643861        0.0015442976
 H         -2.5998607263       -0.5956218655       -0.8842547080
 H         -0.8007970625        1.1408773646       -0.8809270969
 H         -0.8016468879        1.1401770258        0.8826828296
 H         -0.1264250169       -1.2636704523       -0.8853026935
 H         -0.1260922716       -1.2633785072        0.8862559465
 H          3.4996606272        0.6256480663       -0.0006943479
