  19
 
 C          2.1469511575       -1.1988183897       -0.1512360138
 C          1.3964064361        0.1126484458       -0.0528749283
 O          1.9498967367        1.1958699907       -0.0666425748
 N          0.0565568790        0.0053761994        0.0600936746
 C         -0.7251530597       -1.2136586434        0.0253253271
 C         -2.1578623502       -0.7458594751        0.2854305068
 C         -2.1645975004        0.6708313515       -0.2862012544
 C         -0.7878106076        1.1878171989        0.1138214687
 H          2.0068827931       -1.7827007106        0.7557272259
 H          3.2035148411       -0.9848668584       -0.2781192311
 H          1.7917920456       -1.7812279332       -0.9980630881
 H         -0.6454677686       -1.6907677954       -0.9602368177
 H         -0.3822870766       -1.9269892735        0.7798262801
 H         -2.8941229038       -1.3969057088       -0.1814101286
 H         -2.3507845253       -0.7131825675        1.3582198873
 H         -2.2535645253        0.6367965367       -1.3726320562
 H         -2.9701246902        1.2829768568        0.1125830683
 H         -0.3886738510        1.9541914751       -0.5528628890
 H         -0.7954328759        1.5923906691        1.1328720139
          19
        -25.47582868
 C          2.1633767768       -1.1953994126        0.1044520533
 C          1.4085309002        0.1123589857       -0.0059894879
 O          1.9609106328        1.1957123727       -0.0448691187
 N          0.0652599291        0.0023497377       -0.0641464318
 C         -0.7146835673       -1.2151364445        0.0207870124
 C         -2.1533803062       -0.7533392872       -0.2163111037
 C         -2.1465076547        0.6761351554        0.3223527087
 C         -0.7802992194        1.1836944957       -0.1232156037
 H          3.2249140454       -0.9780952133        0.1788365090
 H          1.9856257656       -1.8104194780       -0.7752670656
 H          1.8444966472       -1.7472291952        0.9860074955
 H         -0.3901214950       -1.9476079040       -0.7233989745
 H         -0.6105882873       -1.6670399311        1.0158929812
 H         -2.3715095071       -0.7452678551       -1.2847404421
 H         -2.8784517948       -1.3929650374        0.2827162637
 H         -2.9619035346        1.2790750918       -0.0702771845
 H         -2.2084863319        0.6669397470        1.4112005501
 H         -0.8126026476        1.5660178826       -1.1502469736
 H         -0.3650382898        1.9643625384        0.5165464349
