17
 xtb: 6.7.1 (edcfbbe)
C           -2.61968459174529        0.49388486231726        0.62500283380981
C           -1.72220829971238        0.42390677846969       -0.61844680195529
C           -0.41367679849548       -0.23532473713536       -0.28797576245391
O           -0.13866752408505       -1.39993365039347       -0.53173853048376
O            0.41640700633262        0.60503461231663        0.35946495895828
C            1.71757600429303        0.07569527847206        0.77087370419385
C            2.71068752020491        0.15106303103960       -0.36587131267469
H           -2.16471936415195        1.11034051921548        1.40497094182126
H           -3.58446982570538        0.93396390674536        0.35943450526595
H           -2.80015466734254       -0.50555804097438        1.03211895919563
H           -1.53204636819677        1.43161006799271       -0.99971186333811
H           -2.20259204412790       -0.16605342935670       -1.40196723923291
H            2.01211364586456        0.71845614250842        1.60265286454294
H            1.58316847739525       -0.94574453767387        1.13529935590946
H            2.82426624759726        1.18178773367276       -0.71404535978283
H            3.68497708426332       -0.20094476527699       -0.01225346668787
H            2.40288888510025       -0.47693784491933       -1.20621339226037
