 xtb: 6.7.1 (edcfbbe)
          04112512423D

 17 16  0     0  0            999 V2000
   -2.4243    0.3232    0.9999 C   0  0  0  0  0  0  0  0  0  0  0  0
   -1.7877    0.5845   -0.3686 C   0  0  0  0  0  0  0  0  0  0  0  0
   -0.5318   -0.2371   -0.4976 C   0  0  0  0  0  0  0  0  0  0  0  0
   -0.4592   -1.3173   -1.0484 O   0  0  0  0  0  0  0  0  0  0  0  0
    0.4991    0.3467    0.0941 O   0  0  0  0  0  0  0  0  0  0  0  0
    1.7594   -0.3449    0.0891 C   0  0  0  0  0  0  0  0  0  0  0  0
    2.8148    0.5906    0.6461 C   0  0  0  0  0  0  0  0  0  0  0  0
   -3.3393    0.9000    1.0937 H   0  0  0  0  0  0  0  0  0  0  0  0
   -2.6626   -0.7321    1.1099 H   0  0  0  0  0  0  0  0  0  0  0  0
   -1.7414    0.6135    1.7940 H   0  0  0  0  0  0  0  0  0  0  0  0
   -1.5288    1.6384   -0.4594 H   0  0  0  0  0  0  0  0  0  0  0  0
   -2.4733    0.2938   -1.1636 H   0  0  0  0  0  0  0  0  0  0  0  0
    1.6579   -1.2498    0.6972 H   0  0  0  0  0  0  0  0  0  0  0  0
    1.9829   -0.6487   -0.9389 H   0  0  0  0  0  0  0  0  0  0  0  0
    3.7747    0.0850    0.6540 H   0  0  0  0  0  0  0  0  0  0  0  0
    2.8841    1.4825    0.0306 H   0  0  0  0  0  0  0  0  0  0  0  0
    2.5546    0.8833    1.6589 H   0  0  0  0  0  0  0  0  0  0  0  0
  1  2  1  0  0  0  0
  2  3  1  0  0  0  0
  3  4  2  0  0  0  0
  3  5  1  0  0  0  0
  5  6  1  0  0  0  0
  6  7  1  0  0  0  0
  1  8  1  0  0  0  0
  1  9  1  0  0  0  0
  1 10  1  0  0  0  0
  2 11  1  0  0  0  0
  2 12  1  0  0  0  0
  6 13  1  0  0  0  0
  6 14  1  0  0  0  0
  7 15  1  0  0  0  0
  7 16  1  0  0  0  0
  7 17  1  0  0  0  0
M  END
