14
 xtb: 6.7.1 (edcfbbe)
C           -1.25766667594986        0.28311860621082       -0.21182937135402
C            0.14727433208939        0.65780184371913        0.26077021176592
C            1.23586525061840       -0.23774510985392       -0.32918367669802
O            1.17542186157825       -1.58382991750175        0.16363815637369
O            0.40402509041589        2.02584219579976       -0.09254748114974
O           -1.61256365178302       -1.07303131353321        0.11859176364754
H           -1.29999000084862        0.35247193422781       -1.30551896724793
H           -1.98568207997500        0.98745076867302        0.21080415218924
H            0.19389333642030        0.61158299530591        1.35609406211770
H            2.21562087701066        0.16068755538346       -0.04705288439436
H            1.16003919286870       -0.21887366527972       -1.42919615406204
H            0.24842459528063       -1.85901898805704        0.07389422379068
H            0.36608097946811        2.09140588272498       -1.05790598442084
H           -1.71472407355274       -1.11886437827469        1.07894288262815
