 xtb: 6.7.1 (edcfbbe)
          04112512423D

 17 16  0     0  0            999 V2000
   -2.3630    0.9156   -0.5786 C   0  0  0  0  0  0  0  0  0  0  0  0
   -1.8142    0.1946    0.6562 C   0  0  0  0  0  0  0  0  0  0  0  0
   -0.5300   -0.5066    0.2983 C   0  0  0  0  0  0  0  0  0  0  0  0
   -0.4285   -1.6919    0.0522 O   0  0  0  0  0  0  0  0  0  0  0  0
    0.4926    0.3336    0.2511 O   0  0  0  0  0  0  0  0  0  0  0  0
    1.7761   -0.1913   -0.1274 C   0  0  0  0  0  0  0  0  0  0  0  0
    2.7453    0.9683   -0.2508 C   0  0  0  0  0  0  0  0  0  0  0  0
   -3.2969    1.4096   -0.3286 H   0  0  0  0  0  0  0  0  0  0  0  0
   -1.6518    1.6602   -0.9259 H   0  0  0  0  0  0  0  0  0  0  0  0
   -2.5472    0.2046   -1.3806 H   0  0  0  0  0  0  0  0  0  0  0  0
   -2.5271   -0.5509    1.0063 H   0  0  0  0  0  0  0  0  0  0  0  0
   -1.6099    0.9188    1.4437 H   0  0  0  0  0  0  0  0  0  0  0  0
    2.0943   -0.9060    0.6388 H   0  0  0  0  0  0  0  0  0  0  0  0
    1.6641   -0.7334   -1.0722 H   0  0  0  0  0  0  0  0  0  0  0  0
    3.7250    0.5896   -0.5225 H   0  0  0  0  0  0  0  0  0  0  0  0
    2.4042    1.6606   -1.0148 H   0  0  0  0  0  0  0  0  0  0  0  0
    2.8140    1.4967    0.6954 H   0  0  0  0  0  0  0  0  0  0  0  0
  1  2  1  0  0  0  0
  2  3  1  0  0  0  0
  3  4  2  0  0  0  0
  3  5  1  0  0  0  0
  5  6  1  0  0  0  0
  6  7  1  0  0  0  0
  1  8  1  0  0  0  0
  1  9  1  0  0  0  0
  1 10  1  0  0  0  0
  2 11  1  0  0  0  0
  2 12  1  0  0  0  0
  6 13  1  0  0  0  0
  6 14  1  0  0  0  0
  7 15  1  0  0  0  0
  7 16  1  0  0  0  0
  7 17  1  0  0  0  0
M  END
