 xtb: 6.7.1 (edcfbbe)
          04112511493D

 21 20  0     0  0            999 V2000
    1.8695   -1.0179   -0.5202 C   0  0  0  0  0  0  0  0  0  0  0  0
    1.2361   -0.0081    0.4349 C   0  0  0  0  0  0  0  0  0  0  0  0
    1.0419   -0.4892    1.4008 H   0  0  0  0  0  0  0  0  0  0  0  0
   -0.0680    0.6163   -0.0916 C   0  0  0  0  0  0  0  0  0  0  0  0
   -1.3496   -0.1900    0.1644 C   0  0  0  0  0  0  0  0  0  0  0  0
   -2.5520    0.7560    0.1796 C   0  0  0  0  0  0  0  0  0  0  0  0
   -1.5804   -1.2780   -0.8822 C   0  0  0  0  0  0  0  0  0  0  0  0
    2.1709    1.0168    0.7508 O   0  0  0  0  0  0  0  0  0  0  0  0
    1.9668   -0.5918   -1.5165 H   0  0  0  0  0  0  0  0  0  0  0  0
    2.8582   -1.2862   -0.1541 H   0  0  0  0  0  0  0  0  0  0  0  0
    1.2709   -1.9199   -0.5812 H   0  0  0  0  0  0  0  0  0  0  0  0
   -0.1676    1.5769    0.4210 H   0  0  0  0  0  0  0  0  0  0  0  0
    0.0274    0.8177   -1.1610 H   0  0  0  0  0  0  0  0  0  0  0  0
   -1.2721   -0.6616    1.1505 H   0  0  0  0  0  0  0  0  0  0  0  0
   -3.4703    0.2014    0.3572 H   0  0  0  0  0  0  0  0  0  0  0  0
   -2.6404    1.2687   -0.7757 H   0  0  0  0  0  0  0  0  0  0  0  0
   -2.4469    1.5023    0.9634 H   0  0  0  0  0  0  0  0  0  0  0  0
   -1.6226   -0.8417   -1.8776 H   0  0  0  0  0  0  0  0  0  0  0  0
   -0.7908   -2.0221   -0.8635 H   0  0  0  0  0  0  0  0  0  0  0  0
   -2.5239   -1.7844   -0.6910 H   0  0  0  0  0  0  0  0  0  0  0  0
    2.4369    1.4546   -0.0699 H   0  0  0  0  0  0  0  0  0  0  0  0
  1  2  1  0  0  0  0
  2  3  1  0  0  0  0
  2  4  1  0  0  0  0
  4  5  1  0  0  0  0
  5  6  1  0  0  0  0
  5  7  1  0  0  0  0
  2  8  1  0  0  0  0
  1  9  1  0  0  0  0
  1 10  1  0  0  0  0
  1 11  1  0  0  0  0
  4 12  1  0  0  0  0
  4 13  1  0  0  0  0
  5 14  1  0  0  0  0
  6 15  1  0  0  0  0
  6 16  1  0  0  0  0
  6 17  1  0  0  0  0
  7 18  1  0  0  0  0
  7 19  1  0  0  0  0
  7 20  1  0  0  0  0
  8 21  1  0  0  0  0
M  END
