 xtb: 6.7.1 (edcfbbe)
          04112512193D

 22 23  0     0  0            999 V2000
   -3.2337    0.9456   -0.1511 C   0  0  0  0  0  0  0  0  0  0  0  0
   -2.4181    1.0666    0.9620 C   0  0  0  0  0  0  0  0  0  0  0  0
   -1.2841    0.2833    1.0784 C   0  0  0  0  0  0  0  0  0  0  0  0
   -0.9533   -0.6279    0.0828 C   0  0  0  0  0  0  0  0  0  0  0  0
   -1.7716   -0.7399   -1.0322 C   0  0  0  0  0  0  0  0  0  0  0  0
   -2.9093    0.0408   -1.1471 C   0  0  0  0  0  0  0  0  0  0  0  0
    0.3062   -1.4529    0.2055 C   0  0  0  0  0  0  0  0  0  0  0  0
    1.4751   -0.6103    0.1041 N   0  0  0  0  0  0  0  0  0  0  0  0
    2.2495   -0.1523    1.1292 C   0  0  0  0  0  0  0  0  0  0  0  0
    3.1845    0.6648    0.5626 C   0  0  0  0  0  0  0  0  0  0  0  0
    2.9953    0.7241   -0.7842 N   0  0  0  0  0  0  0  0  0  0  0  0
    1.9633   -0.0451   -1.0201 C   0  0  0  0  0  0  0  0  0  0  0  0
   -4.1191    1.5562   -0.2416 H   0  0  0  0  0  0  0  0  0  0  0  0
   -2.6661    1.7718    1.7407 H   0  0  0  0  0  0  0  0  0  0  0  0
   -0.6481    0.3822    1.9460 H   0  0  0  0  0  0  0  0  0  0  0  0
   -1.5214   -1.4429   -1.8132 H   0  0  0  0  0  0  0  0  0  0  0  0
   -3.5407   -0.0558   -2.0172 H   0  0  0  0  0  0  0  0  0  0  0  0
    0.3368   -1.9572    1.1742 H   0  0  0  0  0  0  0  0  0  0  0  0
    0.3428   -2.2024   -0.5889 H   0  0  0  0  0  0  0  0  0  0  0  0
    2.0881   -0.4458    2.1454 H   0  0  0  0  0  0  0  0  0  0  0  0
    3.9794    1.2106    1.0297 H   0  0  0  0  0  0  0  0  0  0  0  0
    1.5463   -0.2189   -1.9915 H   0  0  0  0  0  0  0  0  0  0  0  0
  1  2  4  0  0  0  0
  2  3  4  0  0  0  0
  3  4  4  0  0  0  0
  4  5  4  0  0  0  0
  1  6  4  0  0  0  0
  5  6  4  0  0  0  0
  4  7  1  0  0  0  0
  7  8  1  0  0  0  0
  8  9  4  0  0  0  0
  9 10  2  0  0  0  0
 10 11  4  0  0  0  0
  8 12  4  0  0  0  0
 11 12  2  0  0  0  0
  1 13  1  0  0  0  0
  2 14  1  0  0  0  0
  3 15  1  0  0  0  0
  5 16  1  0  0  0  0
  6 17  1  0  0  0  0
  7 18  1  0  0  0  0
  7 19  1  0  0  0  0
  9 20  1  0  0  0  0
 10 21  1  0  0  0  0
 12 22  1  0  0  0  0
M  END
