  6
 
 C         -0.6626089032        1.0209358836        0.0008069679
 C          0.6623794190        1.0211434449        0.0009431676
 Cl         1.6126151280       -0.4046284285       -0.0003140805
 Cl        -1.6123547059       -0.4051394799       -0.0003435733
 H         -1.2287698994        1.9385529589       -0.0007575491
 H          1.2283301927        1.9388982135       -0.0005482860
           6
        -14.36686515
 C         -0.6624910692        1.0234327310       -0.0000450616
 C          0.6624838725        1.0234382094        0.0000500498
 Cl         1.6117710508       -0.4019045840       -0.0000084301
 Cl        -1.6117684572       -0.4019061266        0.0000077684
 H         -1.2289508371        1.9409319854       -0.0000862217
 H          1.2289453678        1.9409355217        0.0000500563
