 xtb: 6.7.1 (edcfbbe)
          04112512063D

 22 22  0     0  0            999 V2000
   -3.4408    0.8177   -0.2309 C   0  0  0  0  0  0  0  0  0  0  0  0
   -2.0418    0.4686    0.2693 C   0  0  0  0  0  0  0  0  0  0  0  0
   -2.0962   -0.7412    1.1983 C   0  0  0  0  0  0  0  0  0  0  0  0
   -1.1117    0.2031   -0.9300 C   0  0  0  0  0  0  0  0  0  0  0  0
    0.3061    0.0288   -0.4925 C   0  0  0  0  0  0  0  0  0  0  0  0
    0.8923   -1.2298   -0.3379 C   0  0  0  0  0  0  0  0  0  0  0  0
    2.1371   -1.3848    0.0827 N   0  0  0  0  0  0  0  0  0  0  0  0
    2.8230   -0.2812    0.3544 C   0  0  0  0  0  0  0  0  0  0  0  0
    2.2555    0.9748    0.1961 C   0  0  0  0  0  0  0  0  0  0  0  0
    1.0083    1.1277   -0.2226 N   0  0  0  0  0  0  0  0  0  0  0  0
   -4.1013    1.0194    0.6085 H   0  0  0  0  0  0  0  0  0  0  0  0
   -3.8550   -0.0090   -0.8034 H   0  0  0  0  0  0  0  0  0  0  0  0
   -3.4136    1.6993   -0.8661 H   0  0  0  0  0  0  0  0  0  0  0  0
   -1.6386    1.3228    0.8232 H   0  0  0  0  0  0  0  0  0  0  0  0
   -1.1072   -0.9828    1.5829 H   0  0  0  0  0  0  0  0  0  0  0  0
   -2.7491   -0.5379    2.0434 H   0  0  0  0  0  0  0  0  0  0  0  0
   -2.4815   -1.6098    0.6685 H   0  0  0  0  0  0  0  0  0  0  0  0
   -1.1623    1.0602   -1.6021 H   0  0  0  0  0  0  0  0  0  0  0  0
   -1.4479   -0.6900   -1.4580 H   0  0  0  0  0  0  0  0  0  0  0  0
    0.3492   -2.1379   -0.5595 H   0  0  0  0  0  0  0  0  0  0  0  0
    3.8373   -0.4180    0.6988 H   0  0  0  0  0  0  0  0  0  0  0  0
    2.8036    1.8825    0.4052 H   0  0  0  0  0  0  0  0  0  0  0  0
  1  2  1  0  0  0  0
  2  3  1  0  0  0  0
  2  4  1  0  0  0  0
  4  5  1  0  0  0  0
  5  6  4  0  0  0  0
  6  7  4  0  0  0  0
  7  8  4  0  0  0  0
  8  9  4  0  0  0  0
  5 10  4  0  0  0  0
  9 10  4  0  0  0  0
  1 11  1  0  0  0  0
  1 12  1  0  0  0  0
  1 13  1  0  0  0  0
  2 14  1  0  0  0  0
  3 15  1  0  0  0  0
  3 16  1  0  0  0  0
  3 17  1  0  0  0  0
  4 18  1  0  0  0  0
  4 19  1  0  0  0  0
  6 20  1  0  0  0  0
  8 21  1  0  0  0  0
  9 22  1  0  0  0  0
M  END
