 xtb: 6.7.1 (edcfbbe)
          04112512383D

 23 22  0     0  0            999 V2000
   -2.4316    0.8332    0.5494 C   0  0  0  0  0  0  0  0  0  0  0  0
   -1.2746   -0.1241    0.2617 C   0  0  0  0  0  0  0  0  0  0  0  0
   -1.6315   -1.0271   -0.9170 C   0  0  0  0  0  0  0  0  0  0  0  0
   -0.0000    0.6872   -0.0000 C   0  0  0  0  0  0  0  0  0  0  0  0
    1.2746   -0.1240   -0.2617 C   0  0  0  0  0  0  0  0  0  0  0  0
    2.4315    0.8334   -0.5495 C   0  0  0  0  0  0  0  0  0  0  0  0
    1.6316   -1.0268    0.9171 C   0  0  0  0  0  0  0  0  0  0  0  0
   -3.3388    0.2787    0.7779 H   0  0  0  0  0  0  0  0  0  0  0  0
   -2.1992    1.4742    1.3968 H   0  0  0  0  0  0  0  0  0  0  0  0
   -2.6243    1.4645   -0.3155 H   0  0  0  0  0  0  0  0  0  0  0  0
   -1.1241   -0.7481    1.1483 H   0  0  0  0  0  0  0  0  0  0  0  0
   -2.5839   -1.5207   -0.7368 H   0  0  0  0  0  0  0  0  0  0  0  0
   -1.7160   -0.4414   -1.8300 H   0  0  0  0  0  0  0  0  0  0  0  0
   -0.8773   -1.7949   -1.0668 H   0  0  0  0  0  0  0  0  0  0  0  0
    0.1782    1.3348    0.8628 H   0  0  0  0  0  0  0  0  0  0  0  0
   -0.1784    1.3347   -0.8629 H   0  0  0  0  0  0  0  0  0  0  0  0
    1.1241   -0.7481   -1.1482 H   0  0  0  0  0  0  0  0  0  0  0  0
    2.1991    1.4743   -1.3969 H   0  0  0  0  0  0  0  0  0  0  0  0
    2.6242    1.4648    0.3154 H   0  0  0  0  0  0  0  0  0  0  0  0
    3.3388    0.2789   -0.7779 H   0  0  0  0  0  0  0  0  0  0  0  0
    2.5841   -1.5204    0.7369 H   0  0  0  0  0  0  0  0  0  0  0  0
    1.7161   -0.4411    1.8301 H   0  0  0  0  0  0  0  0  0  0  0  0
    0.8775   -1.7947    1.0670 H   0  0  0  0  0  0  0  0  0  0  0  0
  1  2  1  0  0  0  0
  2  3  1  0  0  0  0
  2  4  1  0  0  0  0
  4  5  1  0  0  0  0
  5  6  1  0  0  0  0
  5  7  1  0  0  0  0
  1  8  1  0  0  0  0
  1  9  1  0  0  0  0
  1 10  1  0  0  0  0
  2 11  1  0  0  0  0
  3 12  1  0  0  0  0
  3 13  1  0  0  0  0
  3 14  1  0  0  0  0
  4 15  1  0  0  0  0
  4 16  1  0  0  0  0
  5 17  1  0  0  0  0
  6 18  1  0  0  0  0
  6 19  1  0  0  0  0
  6 20  1  0  0  0  0
  7 21  1  0  0  0  0
  7 22  1  0  0  0  0
  7 23  1  0  0  0  0
M  END
