  44
 
 C          4.9181227353       -1.1513063206       -1.7887914415
 N          4.2661153038       -0.8047273357       -0.5432034427
 C          5.1038219508       -1.1437670395        0.5877791909
 C          2.9473878521       -1.4069197957       -0.4574120501
 C          2.1080457771       -0.8110474665        0.6787280081
 C          0.6791383876       -1.2248671669        0.5368001949
 C         -0.3645009997       -0.4001898907        0.4430687672
 C         -0.2207562759        1.0680492458        0.5268348789
 C          0.1914656546        1.6877266249        1.6985011147
 C          0.3140890949        3.0651101976        1.7511780072
 C          0.0278338775        3.8277453157        0.6319632631
 C         -0.3832618432        3.2120127368       -0.5382301756
 C         -0.5091746938        1.8338213652       -0.6000865195
 C         -0.9814537282        1.1217589448       -1.8305019600
 C         -2.4255467845        0.6524067902       -1.6448352978
 C         -2.6671908496       -0.4433905552       -0.6346570833
 C         -1.7381103937       -0.9233394869        0.2924330547
 C         -2.1177916618       -1.9549315672        1.1544738830
 C         -3.3781591957       -2.5126777602        1.1128550480
 C         -4.2989790629       -2.0391759219        0.1935775054
 C         -3.9355791710       -1.0199333327       -0.6624558473
 H          4.2976948353       -0.8258460645       -2.6226687838
 H          5.1010354502       -2.2337301682       -1.8891765949
 H          5.8738470093       -0.6323603866       -1.8461513269
 H          4.6592998621       -0.7561702516        1.5015839249
 H          6.0784692818       -0.6755165628        0.4588405160
 H          5.2497587899       -2.2313494698        0.6967223064
 H          2.4353307528       -1.2006026204       -1.4017832438
 H          3.0070411638       -2.5054292837       -0.3391142595
 H          2.4849666530       -1.1677540041        1.6411458616
 H          2.2018401690        0.2747105197        0.6503138617
 H          0.5177067891       -2.2926694558        0.4507170566
 H          0.4098810069        1.0856169429        2.5686982524
 H          0.6346689677        3.5430953928        2.6653802643
 H          0.1243284302        4.9029179381        0.6701186526
 H         -0.6042541586        3.8078048183       -1.4129740745
 H         -0.9395086508        1.7923554475       -2.6915979872
 H         -0.3403906572        0.2601803766       -2.0331780682
 H         -3.0342725639        1.5168131418       -1.3551174459
 H         -2.8064277878        0.3036337145       -2.6097687854
 H         -1.4012577019       -2.3070848175        1.8822803851
 H         -3.6435649198       -3.3071052233        1.7946701242
 H         -5.2919562148       -2.4611064358        0.1447524056
 H         -4.6531540283       -0.6523668814       -1.3835282715
          44
        -57.46263126
 C          2.7613980647       -2.6835517779       -1.5663089442
 N          2.4990752651       -1.6847908149       -0.5515119595
 C          3.4196617390       -0.5742045758       -0.6742427494
 C          2.5047776656       -2.2546116489        0.7858374859
 C          1.6875305965       -1.4055902971        1.7705456967
 C          0.2561352750       -1.3628503908        1.3449061876
 C         -0.3550692185       -0.3188441278        0.7873973461
 C          0.3061963715        0.9866368520        0.5870488177
 C          0.6520510069        1.8021554491        1.6550240597
 C          1.2659677667        3.0223198804        1.4280008033
 C          1.5357030750        3.4297726531        0.1331325318
 C          1.1868412785        2.6189495859       -0.9343380110
 C          0.5721647879        1.3969512436       -0.7173998863
 C          0.1487017049        0.4908930113       -1.8310822250
 C         -1.3689225063        0.5522702220       -2.0157200551
 C         -2.2242825605        0.0075648410       -0.8973830605
 C         -1.7655962745       -0.4018678941        0.3569098531
 C         -2.6822214807       -0.9071504528        1.2811312290
 C         -4.0264012713       -1.0094780257        0.9899276827
 C         -4.4839153953       -0.6004195619       -0.2514126221
 C         -3.5855403580       -0.1037338561       -1.1737068944
 H          2.0041830037       -3.4646388908       -1.5089849654
 H          3.7555859334       -3.1482388466       -1.4658536029
 H          2.6994341923       -2.2148276602       -2.5478289909
 H          3.1620582701        0.1998751991        0.0444529837
 H          3.3333152548       -0.1490871384       -1.6728186661
 H          4.4672264196       -0.8764760904       -0.5099602224
 H          2.0497536879       -3.2471621467        0.7306271322
 H          3.5336962623       -2.3753874546        1.1699971999
 H          1.7652432775       -1.8679721919        2.7583587724
 H          2.1000612888       -0.3994159207        1.8282620227
 H         -0.2786661365       -2.3006510787        1.4304889891
 H          0.4334587596        1.4806069818        2.6636607246
 H          1.5333175162        3.6549261862        2.2620720268
 H          2.0163824304        4.3806731698       -0.0458521086
 H          1.3990658072        2.9384195313       -1.9453909648
 H          0.6232287872        0.7983744034       -2.7657234438
 H          0.4583570878       -0.5311171503       -1.6023323483
 H         -1.6559520638        1.5981653687       -2.1768332419
 H         -1.6312567631        0.0069026083       -2.9278429976
 H         -2.3194319293       -1.2081779777        2.2534401687
 H         -4.7139968834       -1.4003078562        1.7255586851
 H         -5.5330950646       -0.6697677473       -0.4986218146
 H         -3.9423379260        0.2094018059       -2.1457801126
