24
 xtb: 6.7.1 (edcfbbe)
C            3.44132016856304        1.15041810865440       -0.29626239975438
C            1.95175746643520        0.93323171401603       -0.54789574723470
C            1.28736531806396       -0.04058242017400        0.44420053149389
H            1.45667393182405        0.35053682435024        1.45641419000227
C            1.89628175921935       -1.44596428937299        0.37054495490538
C           -0.20972856472580       -0.08048663709155        0.22270414453509
C           -1.09064941768889        0.38656593402847        1.20218223879324
C           -2.46988762724098        0.36198511439929        1.00030038988893
C           -2.99286257094311       -0.13120258192119       -0.19194138332218
C           -2.12548124161684       -0.59967358191935       -1.17798283862967
C           -0.74908741817156       -0.57509529008211       -0.97148389447267
H            3.83684114146333        1.92274745324391       -0.96374929067039
H            3.62165703738085        1.47542252162356        0.73495239639942
H            4.02203636498234        0.23917179084675       -0.46818537755790
H            1.43003301666623        1.89648012413671       -0.48428304747414
H            1.79835788832331        0.56055166890473       -1.56914843359420
H            1.81827562298550       -1.85626670976111       -0.64247735923446
H            2.95418217493698       -1.43190222827621        0.64861851820537
H            1.38004840654327       -2.12745458485875        1.05438152719433
H           -0.68933933559924        0.77381762340117        2.13531145292489
H           -3.13528342280328        0.72856127771019        1.77634865137436
H           -4.06625861128116       -0.15176542491562       -0.35272398453313
H           -2.52310512398683       -0.98644471351278       -2.11171145111082
H           -0.08763986868636       -0.94580718372511       -1.74947526354274
