 xtb: 6.7.1 (edcfbbe)
          04112512193D

 22 23  0     0  0            999 V2000
   -3.3348    0.2301    0.5638 C   0  0  0  0  0  0  0  0  0  0  0  0
   -3.1661   -0.4140   -0.6498 C   0  0  0  0  0  0  0  0  0  0  0  0
   -1.9246   -0.4267   -1.2627 C   0  0  0  0  0  0  0  0  0  0  0  0
   -0.8438    0.2118   -0.6714 C   0  0  0  0  0  0  0  0  0  0  0  0
   -1.0203    0.8594    0.5453 C   0  0  0  0  0  0  0  0  0  0  0  0
   -2.2588    0.8659    1.1612 C   0  0  0  0  0  0  0  0  0  0  0  0
    0.5144    0.2049   -1.3338 C   0  0  0  0  0  0  0  0  0  0  0  0
    1.5504   -0.1650   -0.4025 N   0  0  0  0  0  0  0  0  0  0  0  0
    1.7039   -1.3896    0.1806 C   0  0  0  0  0  0  0  0  0  0  0  0
    2.7630   -1.2723    1.0330 C   0  0  0  0  0  0  0  0  0  0  0  0
    3.2576   -0.0047    0.9898 N   0  0  0  0  0  0  0  0  0  0  0  0
    2.5047    0.6281    0.1265 C   0  0  0  0  0  0  0  0  0  0  0  0
   -4.3011    0.2360    1.0444 H   0  0  0  0  0  0  0  0  0  0  0  0
   -4.0009   -0.9122   -1.1187 H   0  0  0  0  0  0  0  0  0  0  0  0
   -1.7968   -0.9340   -2.2076 H   0  0  0  0  0  0  0  0  0  0  0  0
   -0.1816    1.3538    1.0150 H   0  0  0  0  0  0  0  0  0  0  0  0
   -2.3839    1.3687    2.1081 H   0  0  0  0  0  0  0  0  0  0  0  0
    0.5162   -0.4986   -2.1713 H   0  0  0  0  0  0  0  0  0  0  0  0
    0.7489    1.2032   -1.7145 H   0  0  0  0  0  0  0  0  0  0  0  0
    1.0647   -2.2152   -0.0521 H   0  0  0  0  0  0  0  0  0  0  0  0
    3.2032   -2.0113    1.6719 H   0  0  0  0  0  0  0  0  0  0  0  0
    2.6304    1.6571   -0.1457 H   0  0  0  0  0  0  0  0  0  0  0  0
  1  2  4  0  0  0  0
  2  3  4  0  0  0  0
  3  4  4  0  0  0  0
  4  5  4  0  0  0  0
  1  6  4  0  0  0  0
  5  6  4  0  0  0  0
  4  7  1  0  0  0  0
  7  8  1  0  0  0  0
  8  9  4  0  0  0  0
  9 10  2  0  0  0  0
 10 11  4  0  0  0  0
  8 12  4  0  0  0  0
 11 12  2  0  0  0  0
  1 13  1  0  0  0  0
  2 14  1  0  0  0  0
  3 15  1  0  0  0  0
  5 16  1  0  0  0  0
  6 17  1  0  0  0  0
  7 18  1  0  0  0  0
  7 19  1  0  0  0  0
  9 20  1  0  0  0  0
 10 21  1  0  0  0  0
 12 22  1  0  0  0  0
M  END
