22
 xtb: 6.7.1 (edcfbbe)
C           -3.28645657808707        0.92441028173225       -0.11368647298100
C           -2.29791704108024        1.24585810782397        0.81619825910189
C           -1.13600934091708        0.48512870955141        0.89301372590864
C           -0.94738171113521       -0.60399946882395        0.03765356878156
C           -1.93776166696700       -0.91888341748101       -0.89280744951290
C           -3.10439691764482       -0.15998826912780       -0.96685893831808
C            0.30641186147065       -1.44190861225784        0.12154152882443
N            1.52260115251670       -0.62775308207901        0.06944273280256
C            2.30553076651597       -0.24645719341717        1.13672054921093
C            3.22973099876367        0.62618852018606        0.62498439712532
N            3.02565599233977        0.80473770191813       -0.72994990599422
C            1.98324297197235        0.04217252559529       -1.02052851379407
H           -4.19250111450600        1.51909139196748       -0.17323277496020
H           -2.43520858510911        2.09008873634796        1.48470699900966
H           -0.36844606150672        0.73951047975087        1.61921253431755
H           -1.79263091358322       -1.75960156236961       -1.56533430532203
H           -3.86668225562473       -0.41351255336746       -1.69699432079316
H            0.33553159659812       -2.00338108561009        1.06019817785883
H            0.33252120527229       -2.16263568182348       -0.70027133176966
H            2.13808592208214       -0.63380329026335        2.13055454290358
H            4.02900196197309        1.12804132583302        1.15158339607722
H            1.52872807975268       -0.07167057918045       -1.99598145574294
