22
 xtb: 6.7.1 (edcfbbe)
C            1.59052272119226        0.79738247215519        1.32925755217707
C            1.26749079414312       -0.31783397938779        0.32080299191188
C            2.44823280781365       -0.58830324075070       -0.60429130248856
C           -0.00003885896906        0.00086669244616       -0.45610455684822
O           -0.00006759588804        0.00301891226572       -1.68312849198019
C           -1.26766425012482        0.31636785269042        0.32198523422499
C           -1.58999722276660       -0.80171075157341        1.32745163535744
C           -2.44874475688778        0.58882645787328       -0.60210491055292
H            2.53351702963427        0.56760374999186        1.83399557625121
H            0.81729960670358        0.90373874342617        2.09412143032201
H            1.70534399543945        1.75852754242056        0.81642212896986
H            1.04936870206101       -1.23159576178007        0.89170747951598
H            3.32206799733539       -0.87535003425655       -0.01200592702929
H            2.23171258107573       -1.39659286543754       -1.30787015594011
H            2.70680955516438        0.30527278480218       -1.18185724929686
H           -1.04985358369360        1.22870247531390        0.89530625601316
H           -0.81677742451171       -0.90956035057294        2.09210989470339
H           -2.53319827206032       -0.57398273213147        1.83274447556210
H           -1.70410459570529       -1.76158642763781        0.81208369949376
H           -2.23293732388526        1.39938543520770       -1.30328588028829
H           -2.70680234364643       -0.30319022313901       -1.18231452722239
H           -3.32267940670025        0.87347082410872       -0.00880692841611
