23
 xtb: 6.7.1 (edcfbbe)
C            2.04034174245285        1.27206525010606        0.69664531636208
C            1.64675545261996       -0.17364947234303        0.40349726893898
C            0.38898042371650       -0.31443260469940       -0.46793002815922
H            0.54284626999102        0.31673669497559       -1.35551941426397
C            0.26523787190359       -1.75584181770111       -0.96647431381378
C           -0.87474809296285        0.23758663018731        0.27604181342838
C           -1.41926546795365        1.48007290437687       -0.43166070969592
C           -2.00194564497301       -0.77713566849321        0.48131484630136
H            2.24765087037680        1.81363377829049       -0.23346199073774
H            1.24906367217224        1.81248818197094        1.22696086839806
H            2.94128854870283        1.31754360392094        1.31745644745362
H            1.48211547833188       -0.71536326123233        1.34606651960591
H            2.48435431445924       -0.67427704738350       -0.09995613183824
H            0.19872341894820       -2.46614997477482       -0.13485113228332
H           -0.61221564265769       -1.89895204286627       -1.60413256978106
H            1.14916714341184       -2.02112717245785       -1.55675539921558
H           -0.55017146603105        0.54698961668576        1.27878519376048
H           -1.76980369368749        1.22506511890886       -1.43961403389357
H           -0.64770168929418        2.25133790065298       -0.53226099899433
H           -2.26307072648164        1.91413536044309        0.11708877946922
H           -2.79885773430266       -0.32674790972066        1.08355405294503
H           -1.65843473618746       -1.67355093377419        1.00639973792491
H           -2.44540001394969       -1.08951410351475       -0.47035618245459
