 xtb: 6.7.1 (edcfbbe)
          04112511523D

 18 17  0     0  0            999 V2000
    1.4617   -1.2215   -0.6592 C   0  0  0  0  0  0  0  0  0  0  0  0
    1.0768   -0.2377    0.4445 C   0  0  0  0  0  0  0  0  0  0  0  0
    1.2785    1.1998   -0.0299 C   0  0  0  0  0  0  0  0  0  0  0  0
   -0.3510   -0.4788    0.9604 C   0  0  0  0  0  0  0  0  0  0  0  0
   -1.4729   -0.3729   -0.0773 C   0  0  0  0  0  0  0  0  0  0  0  0
   -1.7401    0.9383   -0.5299 O   0  0  0  0  0  0  0  0  0  0  0  0
    1.2452   -2.2437   -0.3576 H   0  0  0  0  0  0  0  0  0  0  0  0
    2.5252   -1.1436   -0.8724 H   0  0  0  0  0  0  0  0  0  0  0  0
    0.9198   -1.0049   -1.5763 H   0  0  0  0  0  0  0  0  0  0  0  0
    1.7463   -0.4119    1.2963 H   0  0  0  0  0  0  0  0  0  0  0  0
    0.6004    1.4281   -0.8480 H   0  0  0  0  0  0  0  0  0  0  0  0
    2.2996    1.3411   -0.3765 H   0  0  0  0  0  0  0  0  0  0  0  0
    1.0930    1.9009    0.7807 H   0  0  0  0  0  0  0  0  0  0  0  0
   -0.5541    0.2292    1.7681 H   0  0  0  0  0  0  0  0  0  0  0  0
   -0.3991   -1.4848    1.3823 H   0  0  0  0  0  0  0  0  0  0  0  0
   -1.2242   -0.9425   -0.9739 H   0  0  0  0  0  0  0  0  0  0  0  0
   -2.3884   -0.8046    0.3526 H   0  0  0  0  0  0  0  0  0  0  0  0
   -1.9931    1.4840    0.2271 H   0  0  0  0  0  0  0  0  0  0  0  0
  1  2  1  0  0  0  0
  2  3  1  0  0  0  0
  2  4  1  0  0  0  0
  4  5  1  0  0  0  0
  5  6  1  0  0  0  0
  1  7  1  0  0  0  0
  1  8  1  0  0  0  0
  1  9  1  0  0  0  0
  2 10  1  0  0  0  0
  3 11  1  0  0  0  0
  3 12  1  0  0  0  0
  3 13  1  0  0  0  0
  4 14  1  0  0  0  0
  4 15  1  0  0  0  0
  5 16  1  0  0  0  0
  5 17  1  0  0  0  0
  6 18  1  0  0  0  0
M  END
