 xtb: 6.7.1 (edcfbbe)
          04112511303D

 26 25  0     0  0            999 V2000
   -1.3762   -1.2680    0.6740 C   0  0  0  0  0  0  0  0  0  0  0  0
   -1.0780   -0.3310   -0.4948 C   0  0  0  0  0  0  0  0  0  0  0  0
   -2.3755    0.3703   -0.9103 C   0  0  0  0  0  0  0  0  0  0  0  0
    0.0382    0.7113   -0.2545 C   0  0  0  0  0  0  0  0  0  0  0  0
   -0.2905    1.6855    0.8782 C   0  0  0  0  0  0  0  0  0  0  0  0
    1.4783    0.1597   -0.0983 C   0  0  0  0  0  0  0  0  0  0  0  0
    1.8323   -0.3946    1.2819 C   0  0  0  0  0  0  0  0  0  0  0  0
    1.8229   -0.8717   -1.1729 C   0  0  0  0  0  0  0  0  0  0  0  0
   -0.5540   -1.9529    0.8559 H   0  0  0  0  0  0  0  0  0  0  0  0
   -1.5788   -0.7122    1.5850 H   0  0  0  0  0  0  0  0  0  0  0  0
   -2.2568   -1.8642    0.4415 H   0  0  0  0  0  0  0  0  0  0  0  0
   -0.7636   -0.9457   -1.3444 H   0  0  0  0  0  0  0  0  0  0  0  0
   -2.8312    0.8784   -0.0646 H   0  0  0  0  0  0  0  0  0  0  0  0
   -3.0888   -0.3600   -1.2865 H   0  0  0  0  0  0  0  0  0  0  0  0
   -2.1902    1.0995   -1.6959 H   0  0  0  0  0  0  0  0  0  0  0  0
    0.0683    1.3031   -1.1802 H   0  0  0  0  0  0  0  0  0  0  0  0
   -1.1794    2.2627    0.6401 H   0  0  0  0  0  0  0  0  0  0  0  0
    0.5337    2.3824    1.0158 H   0  0  0  0  0  0  0  0  0  0  0  0
   -0.4595    1.1660    1.8164 H   0  0  0  0  0  0  0  0  0  0  0  0
    2.1337    1.0263   -0.2605 H   0  0  0  0  0  0  0  0  0  0  0  0
    1.6752    0.3489    2.0572 H   0  0  0  0  0  0  0  0  0  0  0  0
    1.2506   -1.2772    1.5248 H   0  0  0  0  0  0  0  0  0  0  0  0
    2.8845   -0.6733    1.2938 H   0  0  0  0  0  0  0  0  0  0  0  0
    1.3102   -1.8127   -0.9903 H   0  0  0  0  0  0  0  0  0  0  0  0
    2.8931   -1.0668   -1.1691 H   0  0  0  0  0  0  0  0  0  0  0  0
    1.5469   -0.5083   -2.1604 H   0  0  0  0  0  0  0  0  0  0  0  0
  1  2  1  0  0  0  0
  2  3  1  0  0  0  0
  2  4  1  0  0  0  0
  4  5  1  0  0  0  0
  4  6  1  0  0  0  0
  6  7  1  0  0  0  0
  6  8  1  0  0  0  0
  1  9  1  0  0  0  0
  1 10  1  0  0  0  0
  1 11  1  0  0  0  0
  2 12  1  0  0  0  0
  3 13  1  0  0  0  0
  3 14  1  0  0  0  0
  3 15  1  0  0  0  0
  4 16  1  0  0  0  0
  5 17  1  0  0  0  0
  5 18  1  0  0  0  0
  5 19  1  0  0  0  0
  6 20  1  0  0  0  0
  7 21  1  0  0  0  0
  7 22  1  0  0  0  0
  7 23  1  0  0  0  0
  8 24  1  0  0  0  0
  8 25  1  0  0  0  0
  8 26  1  0  0  0  0
M  END
