  6
 
 C          0.7235793210       -0.0316482937        0.0023563713
 O         -0.6789752630        0.0691892780       -0.0037335921
 H          1.1073025724        0.9867121694       -0.0147598283
 H          1.0953558566       -0.5659680016       -0.8787391913
 H          1.0898223716       -0.5338583542        0.9043949139
 H         -1.0585578364       -0.8155797589        0.0095083886
           6
         -8.22611837
 C          0.7214474455        0.0131738924        0.0000005708
 O         -0.6827050040       -0.0644528047       -0.0000057773
 H          1.0991108610        0.5268044949        0.8908650094
 H          1.0992364884        0.5237175066       -0.8926200458
 H          1.0880480306       -1.0116435204        0.0018266637
 H         -1.0465251810        0.8272536572        0.0000132799
