  15
 
 C         -0.0020000000       -0.6660000000        0.8690000000
 C          1.2440000000       -0.4430000000        1.7060000000
 C          1.2750000000       -1.3490000000        2.9270000000
 O          2.4630000000       -1.0900000000        3.6620000000
 C          2.5500000000       -1.9090000000        4.8200000000
 H         -0.0100000000       -0.0070000000       -0.0060000000
 H         -0.0430000000       -1.7000000000        0.5150000000
 H         -0.9070000000       -0.4710000000        1.4530000000
 H          1.2970000000        0.6050000000        2.0240000000
 H          2.1390000000       -0.6180000000        1.0960000000
 H          0.4150000000       -1.1590000000        3.5770000000
 H          1.2710000000       -2.4040000000        2.6320000000
 H          3.4730000000       -1.6800000000        5.3550000000
 H          2.5360000000       -2.9580000000        4.5210000000
 H          1.6930000000       -1.7000000000        5.4620000000
