 xtb: 6.7.1 (edcfbbe)
          04112511193D

 14 13  0     0  0            999 V2000
   -1.0440   -0.5521   -0.1893 C   0  0  0  0  0  0  0  0  0  0  0  0
    0.0269    0.2617    0.5515 C   0  0  0  0  0  0  0  0  0  0  0  0
    1.3857   -0.4592    0.6000 C   0  0  0  0  0  0  0  0  0  0  0  0
    1.8629   -0.9011   -0.6464 O   0  0  0  0  0  0  0  0  0  0  0  0
    0.1994    1.5254   -0.0545 O   0  0  0  0  0  0  0  0  0  0  0  0
   -2.2945    0.0988   -0.1645 O   0  0  0  0  0  0  0  0  0  0  0  0
   -1.1142   -1.5580    0.2404 H   0  0  0  0  0  0  0  0  0  0  0  0
   -0.7760   -0.6220   -1.2461 H   0  0  0  0  0  0  0  0  0  0  0  0
   -0.2947    0.4104    1.5976 H   0  0  0  0  0  0  0  0  0  0  0  0
    1.3186   -1.2917    1.3104 H   0  0  0  0  0  0  0  0  0  0  0  0
    2.1272    0.2576    0.9592 H   0  0  0  0  0  0  0  0  0  0  0  0
    1.3444   -1.6594   -0.9472 H   0  0  0  0  0  0  0  0  0  0  0  0
   -0.6638    1.8261   -0.3787 H   0  0  0  0  0  0  0  0  0  0  0  0
   -2.6481    0.0903    0.7362 H   0  0  0  0  0  0  0  0  0  0  0  0
  1  2  1  0  0  0  0
  2  3  1  0  0  0  0
  3  4  1  0  0  0  0
  2  5  1  0  0  0  0
  1  6  1  0  0  0  0
  1  7  1  0  0  0  0
  1  8  1  0  0  0  0
  2  9  1  0  0  0  0
  3 10  1  0  0  0  0
  3 11  1  0  0  0  0
  4 12  1  0  0  0  0
  5 13  1  0  0  0  0
  6 14  1  0  0  0  0
M  END
