 xtb: 6.7.1 (edcfbbe)
          04112511413D

 14 13  0     0  0            999 V2000
   -1.1172   -0.0788    0.7118 C   0  0  0  0  0  0  0  0  0  0  0  0
    0.2281    0.5845    0.3653 C   0  0  0  0  0  0  0  0  0  0  0  0
    1.1312   -0.3503   -0.4578 C   0  0  0  0  0  0  0  0  0  0  0  0
    1.6710   -1.4010    0.3048 O   0  0  0  0  0  0  0  0  0  0  0  0
    0.0124    1.7401   -0.4217 O   0  0  0  0  0  0  0  0  0  0  0  0
   -1.8238   -0.4765   -0.4391 O   0  0  0  0  0  0  0  0  0  0  0  0
   -1.7234    0.6205    1.3053 H   0  0  0  0  0  0  0  0  0  0  0  0
   -0.9530   -0.9790    1.3056 H   0  0  0  0  0  0  0  0  0  0  0  0
    0.7523    0.8323    1.2980 H   0  0  0  0  0  0  0  0  0  0  0  0
    1.9783    0.2340   -0.8242 H   0  0  0  0  0  0  0  0  0  0  0  0
    0.5692   -0.7277   -1.3187 H   0  0  0  0  0  0  0  0  0  0  0  0
    0.9866   -2.0640    0.4674 H   0  0  0  0  0  0  0  0  0  0  0  0
   -0.3330    2.4529    0.1338 H   0  0  0  0  0  0  0  0  0  0  0  0
   -1.8533    0.2784   -1.0467 H   0  0  0  0  0  0  0  0  0  0  0  0
  1  2  1  0  0  0  0
  2  3  1  0  0  0  0
  3  4  1  0  0  0  0
  2  5  1  0  0  0  0
  1  6  1  0  0  0  0
  1  7  1  0  0  0  0
  1  8  1  0  0  0  0
  2  9  1  0  0  0  0
  3 10  1  0  0  0  0
  3 11  1  0  0  0  0
  4 12  1  0  0  0  0
  5 13  1  0  0  0  0
  6 14  1  0  0  0  0
M  END
