 xtb: 6.7.1 (edcfbbe)
          04112511193D

 20 19  0     0  0            999 V2000
   -1.8537   -1.2413   -0.2687 C   0  0  0  0  0  0  0  0  0  0  0  0
   -1.2047   -0.0865    0.4860 C   0  0  0  0  0  0  0  0  0  0  0  0
   -0.1401    0.6605   -0.3264 C   0  0  0  0  0  0  0  0  0  0  0  0
    0.3521    1.8750    0.4614 C   0  0  0  0  0  0  0  0  0  0  0  0
    1.0312   -0.2292   -0.7700 C   0  0  0  0  0  0  0  0  0  0  0  0
    1.7877   -0.9168    0.3617 C   0  0  0  0  0  0  0  0  0  0  0  0
   -2.6717   -1.6574    0.3150 H   0  0  0  0  0  0  0  0  0  0  0  0
   -2.2525   -0.8970   -1.2206 H   0  0  0  0  0  0  0  0  0  0  0  0
   -1.1386   -2.0362   -0.4624 H   0  0  0  0  0  0  0  0  0  0  0  0
   -0.7641   -0.4570    1.4129 H   0  0  0  0  0  0  0  0  0  0  0  0
   -1.9814    0.6313    0.7618 H   0  0  0  0  0  0  0  0  0  0  0  0
   -0.6193    1.0282   -1.2427 H   0  0  0  0  0  0  0  0  0  0  0  0
   -0.4687    2.5655    0.6425 H   0  0  0  0  0  0  0  0  0  0  0  0
    1.1269    2.4015   -0.0909 H   0  0  0  0  0  0  0  0  0  0  0  0
    0.7567    1.5736    1.4242 H   0  0  0  0  0  0  0  0  0  0  0  0
    0.6564   -0.9895   -1.4578 H   0  0  0  0  0  0  0  0  0  0  0  0
    1.7316    0.3942   -1.3318 H   0  0  0  0  0  0  0  0  0  0  0  0
    1.1420   -1.5999    0.9069 H   0  0  0  0  0  0  0  0  0  0  0  0
    2.1929   -0.1893    1.0597 H   0  0  0  0  0  0  0  0  0  0  0  0
    2.6164   -1.4907   -0.0472 H   0  0  0  0  0  0  0  0  0  0  0  0
  1  2  1  0  0  0  0
  2  3  1  0  0  0  0
  3  4  1  0  0  0  0
  3  5  1  0  0  0  0
  5  6  1  0  0  0  0
  1  7  1  0  0  0  0
  1  8  1  0  0  0  0
  1  9  1  0  0  0  0
  2 10  1  0  0  0  0
  2 11  1  0  0  0  0
  3 12  1  0  0  0  0
  4 13  1  0  0  0  0
  4 14  1  0  0  0  0
  4 15  1  0  0  0  0
  5 16  1  0  0  0  0
  5 17  1  0  0  0  0
  6 18  1  0  0  0  0
  6 19  1  0  0  0  0
  6 20  1  0  0  0  0
M  END
