14
 xtb: 6.7.1 (edcfbbe)
C           -1.42922365168134        0.37648066325483       -0.23844781229516
C            0.00004657723697        0.31717947909433        0.29196600754056
C            0.81678856091576       -0.75915604377475       -0.39060208255663
O            2.11900668188810       -0.76892937734717        0.22091495294941
O            0.56480313538120        1.61812798439204        0.04940872159452
O           -2.20339668958589       -0.76037837910158        0.15972068884009
H           -1.42107586573904        0.48528552200659       -1.33197679933317
H           -1.92000820675775        1.25590808795811        0.18940423054644
H           -0.02948713199194        0.11636616273151        1.37462159269263
H            0.89423047371388       -0.53424497519034       -1.46409251224421
H            0.32707477803114       -1.73537647927846       -0.26523642539583
H            2.67255568370594       -1.38094227303951       -0.27965080562204
H            1.50595498165359        1.56156545788792        0.26272739431704
H           -1.95232548871721       -1.50604734591454       -0.39934653744254
