 xtb: 6.7.1 (edcfbbe)
          04112512243D

 23 22  0     0  0            999 V2000
    2.5278    0.8003    0.1379 C   0  0  0  0  0  0  0  0  0  0  0  0
    1.0901    0.5339    0.5726 C   0  0  0  0  0  0  0  0  0  0  0  0
    0.2897   -0.2581   -0.4688 C   0  0  0  0  0  0  0  0  0  0  0  0
    0.5101    0.1675   -1.4556 H   0  0  0  0  0  0  0  0  0  0  0  0
    0.7260   -1.7237   -0.4905 C   0  0  0  0  0  0  0  0  0  0  0  0
   -1.2377   -0.1459   -0.2688 C   0  0  0  0  0  0  0  0  0  0  0  0
   -1.6847   -0.4522    1.1597 C   0  0  0  0  0  0  0  0  0  0  0  0
   -1.7604    1.2267   -0.6940 C   0  0  0  0  0  0  0  0  0  0  0  0
    3.0813   -0.1270    0.0164 H   0  0  0  0  0  0  0  0  0  0  0  0
    2.5464    1.3380   -0.8078 H   0  0  0  0  0  0  0  0  0  0  0  0
    3.0396    1.4034    0.8845 H   0  0  0  0  0  0  0  0  0  0  0  0
    0.6045    1.4955    0.7459 H   0  0  0  0  0  0  0  0  0  0  0  0
    1.0975   -0.0124    1.5174 H   0  0  0  0  0  0  0  0  0  0  0  0
    0.1537   -2.2806   -1.2292 H   0  0  0  0  0  0  0  0  0  0  0  0
    1.7783   -1.8070   -0.7478 H   0  0  0  0  0  0  0  0  0  0  0  0
    0.5767   -2.1877    0.4814 H   0  0  0  0  0  0  0  0  0  0  0  0
   -1.6978   -0.8897   -0.9308 H   0  0  0  0  0  0  0  0  0  0  0  0
   -1.3170   -1.4212    1.4856 H   0  0  0  0  0  0  0  0  0  0  0  0
   -2.7713   -0.4690    1.2103 H   0  0  0  0  0  0  0  0  0  0  0  0
   -1.3258    0.3070    1.8495 H   0  0  0  0  0  0  0  0  0  0  0  0
   -1.3649    2.0123   -0.0549 H   0  0  0  0  0  0  0  0  0  0  0  0
   -2.8455    1.2517   -0.6252 H   0  0  0  0  0  0  0  0  0  0  0  0
   -1.4774    1.4445   -1.7214 H   0  0  0  0  0  0  0  0  0  0  0  0
  1  2  1  0  0  0  0
  2  3  1  0  0  0  0
  3  4  1  0  0  0  0
  3  5  1  0  0  0  0
  3  6  1  0  0  0  0
  6  7  1  0  0  0  0
  6  8  1  0  0  0  0
  1  9  1  0  0  0  0
  1 10  1  0  0  0  0
  1 11  1  0  0  0  0
  2 12  1  0  0  0  0
  2 13  1  0  0  0  0
  5 14  1  0  0  0  0
  5 15  1  0  0  0  0
  5 16  1  0  0  0  0
  6 17  1  0  0  0  0
  7 18  1  0  0  0  0
  7 19  1  0  0  0  0
  7 20  1  0  0  0  0
  8 21  1  0  0  0  0
  8 22  1  0  0  0  0
  8 23  1  0  0  0  0
M  END
