 xtb: 6.7.1 (edcfbbe)
          04112512203D

 18 17  0     0  0            999 V2000
   -1.3616    1.5952    0.1010 C   0  0  0  0  0  0  0  0  0  0  0  0
   -1.3091    0.1409   -0.3534 C   0  0  0  0  0  0  0  0  0  0  0  0
   -0.1405   -0.6473    0.2506 C   0  0  0  0  0  0  0  0  0  0  0  0
   -0.1550   -0.5095    1.3383 H   0  0  0  0  0  0  0  0  0  0  0  0
   -0.3010   -2.1361   -0.0567 C   0  0  0  0  0  0  0  0  0  0  0  0
    1.2211   -0.1664   -0.2765 C   0  0  0  0  0  0  0  0  0  0  0  0
    1.6633    1.0617    0.2617 O   0  0  0  0  0  0  0  0  0  0  0  0
   -2.1930    2.1082   -0.3767 H   0  0  0  0  0  0  0  0  0  0  0  0
   -1.4979    1.6524    1.1788 H   0  0  0  0  0  0  0  0  0  0  0  0
   -0.4411    2.1110   -0.1582 H   0  0  0  0  0  0  0  0  0  0  0  0
   -1.2334    0.1035   -1.4426 H   0  0  0  0  0  0  0  0  0  0  0  0
   -2.2426   -0.3516   -0.0704 H   0  0  0  0  0  0  0  0  0  0  0  0
    0.4971   -2.7144    0.4023 H   0  0  0  0  0  0  0  0  0  0  0  0
   -0.2732   -2.3028   -1.1310 H   0  0  0  0  0  0  0  0  0  0  0  0
   -1.2517   -2.5004    0.3238 H   0  0  0  0  0  0  0  0  0  0  0  0
    1.1669   -0.0059   -1.3564 H   0  0  0  0  0  0  0  0  0  0  0  0
    1.9763   -0.9419   -0.0865 H   0  0  0  0  0  0  0  0  0  0  0  0
    1.7812    0.9604    1.2160 H   0  0  0  0  0  0  0  0  0  0  0  0
  1  2  1  0  0  0  0
  2  3  1  0  0  0  0
  3  4  1  0  0  0  0
  3  5  1  0  0  0  0
  3  6  1  0  0  0  0
  6  7  1  0  0  0  0
  1  8  1  0  0  0  0
  1  9  1  0  0  0  0
  1 10  1  0  0  0  0
  2 11  1  0  0  0  0
  2 12  1  0  0  0  0
  5 13  1  0  0  0  0
  5 14  1  0  0  0  0
  5 15  1  0  0  0  0
  6 16  1  0  0  0  0
  6 17  1  0  0  0  0
  7 18  1  0  0  0  0
M  END
