 xtb: 6.7.1 (edcfbbe)
          04112511493D

 21 20  0     0  0            999 V2000
    1.8348    0.9021   -0.9748 C   0  0  0  0  0  0  0  0  0  0  0  0
    1.4497   -0.2323   -0.0254 C   0  0  0  0  0  0  0  0  0  0  0  0
    2.1916   -1.0333   -0.1433 H   0  0  0  0  0  0  0  0  0  0  0  0
    0.0671   -0.8575   -0.3175 C   0  0  0  0  0  0  0  0  0  0  0  0
   -1.1718   -0.1329    0.2294 C   0  0  0  0  0  0  0  0  0  0  0  0
   -1.5434    1.1214   -0.5597 C   0  0  0  0  0  0  0  0  0  0  0  0
   -2.3562   -1.1020    0.2089 C   0  0  0  0  0  0  0  0  0  0  0  0
    1.5898    0.1593    1.3297 O   0  0  0  0  0  0  0  0  0  0  0  0
    1.7631    0.5657   -2.0044 H   0  0  0  0  0  0  0  0  0  0  0  0
    1.1905    1.7660   -0.8424 H   0  0  0  0  0  0  0  0  0  0  0  0
    2.8603    1.2058   -0.7767 H   0  0  0  0  0  0  0  0  0  0  0  0
   -0.0283   -0.9807   -1.3972 H   0  0  0  0  0  0  0  0  0  0  0  0
    0.0767   -1.8545    0.1293 H   0  0  0  0  0  0  0  0  0  0  0  0
   -0.9833    0.1402    1.2734 H   0  0  0  0  0  0  0  0  0  0  0  0
   -1.6280    0.8898   -1.6190 H   0  0  0  0  0  0  0  0  0  0  0  0
   -0.8115    1.9134   -0.4374 H   0  0  0  0  0  0  0  0  0  0  0  0
   -2.5029    1.5026   -0.2161 H   0  0  0  0  0  0  0  0  0  0  0  0
   -3.2468   -0.6233    0.6093 H   0  0  0  0  0  0  0  0  0  0  0  0
   -2.5658   -1.4197   -0.8103 H   0  0  0  0  0  0  0  0  0  0  0  0
   -2.1453   -1.9848    0.8080 H   0  0  0  0  0  0  0  0  0  0  0  0
    1.0890    0.9750    1.4677 H   0  0  0  0  0  0  0  0  0  0  0  0
  1  2  1  0  0  0  0
  2  3  1  0  0  0  0
  2  4  1  0  0  0  0
  4  5  1  0  0  0  0
  5  6  1  0  0  0  0
  5  7  1  0  0  0  0
  2  8  1  0  0  0  0
  1  9  1  0  0  0  0
  1 10  1  0  0  0  0
  1 11  1  0  0  0  0
  4 12  1  0  0  0  0
  4 13  1  0  0  0  0
  5 14  1  0  0  0  0
  6 15  1  0  0  0  0
  6 16  1  0  0  0  0
  6 17  1  0  0  0  0
  7 18  1  0  0  0  0
  7 19  1  0  0  0  0
  7 20  1  0  0  0  0
  8 21  1  0  0  0  0
M  END
