17
 xtb: 6.7.1 (edcfbbe)
C           -3.10708299520656        0.76849429070023        0.05328850973841
C           -1.58388789682251        0.85882188086781        0.08442173597509
C           -0.95100413822527       -0.52041380130420       -0.07079872164530
C            0.54987297804736       -0.59763937635783       -0.05950834165888
O            1.17463398649145       -1.64257424618508       -0.16499448491554
O            1.14812421657010        0.59782681170692        0.07750308445639
C            2.59949929280070        0.58158228321013        0.09256110000397
H           -3.48013250335135        0.13489187165051        0.86540376165282
H           -3.56178168840745        1.75772743778763        0.16259022555087
H           -3.45569074271927        0.34000953513903       -0.89278899511352
H           -1.25792494365962        1.30856755445279        1.02838793181511
H           -1.23546919880618        1.51627355100958       -0.71930898362972
H           -1.27030210369339       -0.98766703824417       -1.01140922344210
H           -1.29417550888883       -1.19452957444009        0.72458470717977
H            2.95999602797943       -0.00164214842833        0.94309867459614
H            2.89766972029006        1.62452554879034        0.19179418899016
H            2.98147245503738        0.16175250094305       -0.84077490508531
