  11
 
 C          1.7325521533        0.6943656180        0.0125034674
 C          0.4565832147       -0.1042494350        0.0172220698
 O          0.3825264869       -1.3035146989        0.0066951183
 O         -0.6140495990        0.7018421042        0.0188134865
 C         -1.8825196741        0.0623122353       -0.0051233642
 H          2.0316407164        0.8627521182       -1.0205090973
 H          2.5163413448        0.1332461095        0.5123624917
 H          1.5755960217        1.6547631009        0.4930082879
 H         -2.6242860323        0.8564989120        0.0022977656
 H         -1.9986890408       -0.5806473639        0.8696758018
 H         -1.9824492070       -0.5486674528       -0.9044596111
          11
        -17.61980070
 C          1.7607930830        0.6298207811        0.0037659998
 C          0.4593644432       -0.1268736877       -0.0057898934
 O          0.3472203759       -1.3231829665       -0.0009888635
 O         -0.5847640007        0.7129141169       -0.0091824084
 C         -1.8736418444        0.1145519788        0.0074535033
 H          1.6070643646        1.6464893280       -0.3430521894
 H          2.4864715399        0.1136459173       -0.6182664132
 H          2.1406614605        0.6529651018        1.0235313493
 H         -1.9866987897       -0.5643437084       -0.8400770017
 H         -2.5889698074        0.9302569793       -0.0561916141
 H         -2.0171401221       -0.4502567209        0.9308107126
