 11

C     -0.937000    -0.555000     0.088000
C     -1.638000    -0.584000    -1.237000
O     -1.904000    -1.609000    -1.849000
O     -1.919000     0.690000    -1.632000
C     -2.591000     0.810000    -2.889000
H      0.143000    -0.496000    -0.065000
H     -1.197000    -1.447000     0.664000
H     -1.258000     0.327000     0.649000
H     -2.760000     1.865000    -3.096000
H     -3.534000     0.271000    -2.834000
H     -1.956000     0.376000    -3.658000
