 xtb: 6.7.1 (edcfbbe)
          04112511323D

 21 20  0     0  0            999 V2000
   -2.3851   -0.7559   -0.0830 C   0  0  0  0  0  0  0  0  0  0  0  0
   -1.7440    0.5692    0.3115 C   0  0  0  0  0  0  0  0  0  0  0  0
   -0.4433    0.9046   -0.4242 C   0  0  0  0  0  0  0  0  0  0  0  0
    0.7913    0.0483   -0.0600 C   0  0  0  0  0  0  0  0  0  0  0  0
    2.0585    0.8849   -0.2990 C   0  0  0  0  0  0  0  0  0  0  0  0
    0.8786   -1.2223   -0.9166 C   0  0  0  0  0  0  0  0  0  0  0  0
    0.6918   -0.2877    1.3196 O   0  0  0  0  0  0  0  0  0  0  0  0
   -2.4477   -0.8472   -1.1653 H   0  0  0  0  0  0  0  0  0  0  0  0
   -3.3916   -0.8153    0.3255 H   0  0  0  0  0  0  0  0  0  0  0  0
   -1.8165   -1.5930    0.3117 H   0  0  0  0  0  0  0  0  0  0  0  0
   -2.4505    1.3755    0.0990 H   0  0  0  0  0  0  0  0  0  0  0  0
   -1.5484    0.5695    1.3844 H   0  0  0  0  0  0  0  0  0  0  0  0
   -0.6043    0.8368   -1.5009 H   0  0  0  0  0  0  0  0  0  0  0  0
   -0.2047    1.9435   -0.1868 H   0  0  0  0  0  0  0  0  0  0  0  0
    2.9512    0.2841   -0.1373 H   0  0  0  0  0  0  0  0  0  0  0  0
    2.0794    1.7298    0.3857 H   0  0  0  0  0  0  0  0  0  0  0  0
    2.0721    1.2584   -1.3188 H   0  0  0  0  0  0  0  0  0  0  0  0
    0.9180   -0.9582   -1.9693 H   0  0  0  0  0  0  0  0  0  0  0  0
    0.0204   -1.8638   -0.7481 H   0  0  0  0  0  0  0  0  0  0  0  0
    1.7800   -1.7799   -0.6679 H   0  0  0  0  0  0  0  0  0  0  0  0
    1.4782   -0.7882    1.5733 H   0  0  0  0  0  0  0  0  0  0  0  0
  1  2  1  0  0  0  0
  2  3  1  0  0  0  0
  3  4  1  0  0  0  0
  4  5  1  0  0  0  0
  4  6  1  0  0  0  0
  4  7  1  0  0  0  0
  1  8  1  0  0  0  0
  1  9  1  0  0  0  0
  1 10  1  0  0  0  0
  2 11  1  0  0  0  0
  2 12  1  0  0  0  0
  3 13  1  0  0  0  0
  3 14  1  0  0  0  0
  5 15  1  0  0  0  0
  5 16  1  0  0  0  0
  5 17  1  0  0  0  0
  6 18  1  0  0  0  0
  6 19  1  0  0  0  0
  6 20  1  0  0  0  0
  7 21  1  0  0  0  0
M  END
