  10
 
 C         -2.1460000000       -0.1940000000       -0.1210000000
 C         -0.8940000000        0.4510000000        0.4420000000
 O         -0.8120000000        1.7920000000       -0.0250000000
 O         -3.2830000000        0.5410000000        0.3170000000
 H         -2.2510000000       -1.2250000000        0.2300000000
 H         -2.1270000000       -0.1760000000       -1.2140000000
 H          0.0050000000       -0.0800000000        0.1120000000
 H         -0.9310000000        0.4690000000        1.5350000000
 H         -0.0030000000        2.1700000000        0.3540000000
 H         -4.0610000000        0.1020000000       -0.0600000000
