 21

C      2.544000    -2.309000     4.025000
C      2.786000    -2.076000     2.542000
C      1.809000    -1.043000     1.974000
C      2.018000    -0.778000     0.479000
C      1.059000     0.235000    -0.076000
C      1.439000     1.390000    -0.642000
C      0.486000     2.396000    -1.197000
H      3.246000    -3.048000     4.426000
H      2.662000    -1.381000     4.593000
H      1.528000    -2.681000     4.190000
H      2.676000    -3.026000     2.007000
H      3.820000    -1.741000     2.402000
H      0.783000    -1.403000     2.119000
H      1.896000    -0.104000     2.535000
H      1.870000    -1.717000    -0.068000
H      3.057000    -0.474000     0.303000
H      0.001000    -0.006000    -0.012000
H      2.496000     1.631000    -0.711000
H      0.204000     3.112000    -0.418000
H     -0.421000     1.895000    -1.549000
H      0.915000     2.955000    -2.035000
