  21
 
 C          2.5440000000       -2.3090000000        4.0250000000
 C          2.7860000000       -2.0760000000        2.5420000000
 C          1.8090000000       -1.0430000000        1.9740000000
 C          2.0180000000       -0.7780000000        0.4790000000
 C          1.0590000000        0.2350000000       -0.0760000000
 C          1.4390000000        1.3900000000       -0.6420000000
 C          0.4860000000        2.3960000000       -1.1970000000
 H          3.2460000000       -3.0480000000        4.4260000000
 H          2.6620000000       -1.3810000000        4.5930000000
 H          1.5280000000       -2.6810000000        4.1900000000
 H          2.6760000000       -3.0260000000        2.0070000000
 H          3.8200000000       -1.7410000000        2.4020000000
 H          0.7830000000       -1.4030000000        2.1190000000
 H          1.8960000000       -0.1040000000        2.5350000000
 H          1.8700000000       -1.7170000000       -0.0680000000
 H          3.0570000000       -0.4740000000        0.3030000000
 H          0.0010000000       -0.0060000000       -0.0120000000
 H          2.4960000000        1.6310000000       -0.7110000000
 H          0.2040000000        3.1120000000       -0.4180000000
 H         -0.4210000000        1.8950000000       -1.5490000000
 H          0.9150000000        2.9550000000       -2.0350000000
