  22
 
 C          1.7038574544        0.1612579638       -1.6392431863
 C          3.0790842468        0.1272970724       -1.7740120537
 C          3.8907781649        0.1569038369       -0.6498159067
 C          3.3145291751        0.2197487715        0.6167694890
 C          1.9354218446        0.2541405243        0.7490181649
 C          1.1249010134        0.2259760931       -0.3774794560
 C         -0.3495659501        0.2553183040       -0.2301807217
 C         -1.0351423815        1.4607797866       -0.2089156067
 C         -2.4148828863        1.4855701862       -0.0789428371
 C         -3.1329846353        0.2957436059        0.0326168019
 C         -2.4510407829       -0.9208520948        0.0138850782
 C         -1.0638523437       -0.9360802139       -0.1172884602
 Cl        -0.2213619179       -2.4342412241       -0.1409651129
 Cl        -3.3214986570       -2.3907082527        0.1506839741
 Cl        -4.8396429246        0.3199605464        0.1907721821
 Cl        -3.2436225471        2.9883196067       -0.0571187998
 Cl         4.3050864850        0.2556531623        2.0235601553
 Cl         5.6021774548        0.1167880946       -0.8257657168
 H          1.0746720572        0.1345365276       -2.5150061112
 H          3.5325345655        0.0761168905       -2.7509539322
 H          1.4953471905        0.2995880971        1.7325714552
 H         -0.4896052126        2.3866806019       -0.2947876612
          22
        -55.05793383
 C          1.7257436343       -1.0333815904        1.1487676826
 C          3.1003606871       -1.1399143098        1.2348123569
 C          3.9156654198       -0.3172230344        0.4713235783
 C          3.3399957439        0.6265629831       -0.3765920474
 C          1.9619487241        0.7366609383       -0.4557391332
 C          1.1429563760       -0.0973913395        0.2986072499
 C         -0.3212472270        0.0445605757        0.2020228885
 C         -0.8984242246        1.2997449341        0.3641836038
 C         -2.2697646785        1.4718212881        0.2885924698
 C         -3.1020660641        0.3812561716        0.0399565293
 C         -2.5353317082       -0.8800463645       -0.1397142913
 C         -1.1534595116       -1.0464150720       -0.0586789544
 Cl        -0.4912629417       -2.6070133178       -0.3441125003
 Cl        -3.5472107639       -2.2250223389       -0.4661540387
 Cl        -4.8012590417        0.5824765820       -0.0520735212
 Cl        -2.9493225506        3.0332997197        0.5034512423
 Cl         4.3325223344        1.6613963497       -1.3297610892
 Cl         5.6261946964       -0.4631460655        0.5782575557
 H          1.1031182429       -1.6677277477        1.7588665575
 H          3.5523076240       -1.8627772208        1.8950350125
 H          1.5266588413        1.4626465060       -1.1241393488
 H         -0.2683170943        2.1503516039        0.5688029889
