  22
 
 C          1.8850000000       -1.0360000000       -0.1120000000
 C          2.9210000000       -1.6310000000        0.6080000000
 C          2.8780000000       -1.6520000000        2.0020000000
 C          1.8000000000       -1.0790000000        2.6760000000
 C          0.7640000000       -0.4840000000        1.9550000000
 C          0.8070000000       -0.4630000000        0.5610000000
 C         -0.2670000000        0.1540000000       -0.1870000000
 C         -0.1520000000        1.5110000000       -0.4880000000
 C         -1.1600000000        2.1540000000       -1.2070000000
 C         -2.2820000000        1.4400000000       -1.6260000000
 C         -2.3970000000        0.0820000000       -1.3260000000
 C         -1.3890000000       -0.5600000000       -0.6060000000
 Cl        -1.5140000000       -2.2530000000       -0.2160000000
 Cl        -3.7980000000       -0.8120000000       -1.8470000000
 Cl        -3.5310000000        2.2550000000       -2.5230000000
 Cl        -0.9430000000        3.8380000000       -1.5430000000
 Cl         1.6920000000       -1.0700000000        4.4010000000
 Cl         4.1940000000       -2.3990000000        2.8380000000
 H          1.9320000000       -1.0280000000       -1.1990000000
 H          3.7530000000       -2.0750000000        0.0670000000
 H         -0.0790000000       -0.0350000000        2.4780000000
 H          0.7250000000        2.0680000000       -0.1630000000
