14
 xtb: 6.7.1 (edcfbbe)
C           -2.86247910404029        0.42434191071111       -0.15117568371966
C           -1.44760910607210        0.29453246678497        0.40485115038529
C           -0.65033026218547       -0.79137096611432       -0.31211776857575
C            0.74032960516857       -1.01694611825946        0.23107112798705
Cl           1.83338710808719        0.45050467571899       -0.05148532078418
H           -2.84175718298488        0.68290126619314       -1.21560775321163
H           -3.41416286329805       -0.51638205827357       -0.04665182920880
H           -3.42525315045199        1.20372114007854        0.37180172771065
H           -1.48755519228283        0.05989093035157        1.47629580905740
H           -0.92628174927924        1.25408562659285        0.31075316874129
H           -1.17027894673187       -1.75440132122109       -0.20191618268430
H           -0.60126164956142       -0.58359033544733       -1.38771027118651
H            1.24641305848908       -1.84660867805511       -0.26384633512193
H            0.74170885301953       -1.17285650352981        1.31179616526044
