 xtb: 6.7.1 (edcfbbe)
          04112512173D

 18 17  0     0  0            999 V2000
   -2.4249    0.2735   -0.1404 C   0  0  0  0  0  0  0  0  0  0  0  0
   -0.9660    0.6825   -0.3050 C   0  0  0  0  0  0  0  0  0  0  0  0
   -0.0367   -0.1825    0.5508 C   0  0  0  0  0  0  0  0  0  0  0  0
    1.3853    0.3944    0.6475 C   0  0  0  0  0  0  0  0  0  0  0  0
    2.0663    0.5366   -0.7096 C   0  0  0  0  0  0  0  0  0  0  0  0
   -0.0325   -1.4854   -0.0102 O   0  0  0  0  0  0  0  0  0  0  0  0
   -2.5428   -0.7774   -0.3923 H   0  0  0  0  0  0  0  0  0  0  0  0
   -2.7509    0.4227    0.8868 H   0  0  0  0  0  0  0  0  0  0  0  0
   -3.0602    0.8635   -0.7957 H   0  0  0  0  0  0  0  0  0  0  0  0
   -0.6763    0.5642   -1.3491 H   0  0  0  0  0  0  0  0  0  0  0  0
   -0.8371    1.7272   -0.0194 H   0  0  0  0  0  0  0  0  0  0  0  0
   -0.4537   -0.2319    1.5716 H   0  0  0  0  0  0  0  0  0  0  0  0
    1.3316    1.3643    1.1441 H   0  0  0  0  0  0  0  0  0  0  0  0
    1.9814   -0.2689    1.2797 H   0  0  0  0  0  0  0  0  0  0  0  0
    1.6142    1.3373   -1.2881 H   0  0  0  0  0  0  0  0  0  0  0  0
    3.1218    0.7609   -0.5791 H   0  0  0  0  0  0  0  0  0  0  0  0
    1.9727   -0.3899   -1.2715 H   0  0  0  0  0  0  0  0  0  0  0  0
    0.5031   -2.0671    0.5447 H   0  0  0  0  0  0  0  0  0  0  0  0
  1  2  1  0  0  0  0
  2  3  1  0  0  0  0
  3  4  1  0  0  0  0
  4  5  1  0  0  0  0
  3  6  1  0  0  0  0
  1  7  1  0  0  0  0
  1  8  1  0  0  0  0
  1  9  1  0  0  0  0
  2 10  1  0  0  0  0
  2 11  1  0  0  0  0
  3 12  1  0  0  0  0
  4 13  1  0  0  0  0
  4 14  1  0  0  0  0
  5 15  1  0  0  0  0
  5 16  1  0  0  0  0
  5 17  1  0  0  0  0
  6 18  1  0  0  0  0
M  END
