  13
 
 C         -1.8166295869       -1.3478135115        0.0001134969
 C         -0.4813800082       -1.7039167803        0.0001644487
 C          0.5037242325       -0.7296236728        0.0001203307
 C          0.1393870213        0.6148028373        0.0000199467
 C         -1.1956336650        0.9759342298       -0.0000421422
 C         -2.1828530022       -0.0053526542        0.0000020536
 O         -3.4754940971        0.3963699856       -0.0000361280
 Cl         1.3463153450        1.8409424217       -0.0000909372
 Cl         2.1667045546       -1.1861135759        0.0001355291
 H         -2.5769612739       -2.1160921917        0.0001700196
 H         -0.1952185406       -2.7434157482        0.0002350980
 H         -1.4840110659        2.0139186154       -0.0001206963
 H         -4.0629327027       -0.3695551936        0.0000229132
          13
        -28.05368338
 C         -1.8202268144       -1.3478497230        0.0000604929
 C         -0.4879273557       -1.7039350105        0.0001128424
 C          0.5015499221       -0.7305854677        0.0001686815
 C          0.1419709300        0.6122665099        0.0001063277
 C         -1.1954870896        0.9752267545        0.0000320223
 C         -2.1837861847       -0.0024509732        0.0000295078
 O         -3.5004596751        0.3083047509       -0.0002202497
 Cl         1.3489770342        1.8406118704       -0.0000107566
 Cl         2.1634579804       -1.1912468810       -0.0000862146
 H         -2.5955943130       -2.0959355601       -0.0001066271
 H         -0.2030016147       -2.7436657925       -0.0000674644
 H         -1.4585059273        2.0230871568        0.0000856208
 H         -3.6194156234        1.2662388992        0.0009195875
