 xtb: 6.7.1 (edcfbbe)
          04112511193D

 14 13  0     0  0            999 V2000
   -1.4566    0.3593   -0.2201 C   0  0  0  0  0  0  0  0  0  0  0  0
    0.0035    0.3836    0.2649 C   0  0  0  0  0  0  0  0  0  0  0  0
    0.8219   -0.7265   -0.4086 C   0  0  0  0  0  0  0  0  0  0  0  0
    2.0961   -0.8757    0.1716 O   0  0  0  0  0  0  0  0  0  0  0  0
    0.5916    1.6500    0.0562 O   0  0  0  0  0  0  0  0  0  0  0  0
   -2.1270   -0.8297    0.1165 O   0  0  0  0  0  0  0  0  0  0  0  0
   -1.4798    0.4095   -1.3126 H   0  0  0  0  0  0  0  0  0  0  0  0
   -1.9767    1.2374    0.1836 H   0  0  0  0  0  0  0  0  0  0  0  0
    0.0378    0.2336    1.3502 H   0  0  0  0  0  0  0  0  0  0  0  0
    0.9155   -0.5090   -1.4829 H   0  0  0  0  0  0  0  0  0  0  0  0
    0.3090   -1.6822   -0.2892 H   0  0  0  0  0  0  0  0  0  0  0  0
    2.5067    0.0003    0.2297 H   0  0  0  0  0  0  0  0  0  0  0  0
    0.5464    1.8737   -0.8847 H   0  0  0  0  0  0  0  0  0  0  0  0
   -2.2375   -0.8799    1.0762 H   0  0  0  0  0  0  0  0  0  0  0  0
  1  2  1  0  0  0  0
  2  3  1  0  0  0  0
  3  4  1  0  0  0  0
  2  5  1  0  0  0  0
  1  6  1  0  0  0  0
  1  7  1  0  0  0  0
  1  8  1  0  0  0  0
  2  9  1  0  0  0  0
  3 10  1  0  0  0  0
  3 11  1  0  0  0  0
  4 12  1  0  0  0  0
  5 13  1  0  0  0  0
  6 14  1  0  0  0  0
M  END
