 xtb: 6.7.1 (edcfbbe)
          04112511503D

 26 26  0     0  0            999 V2000
    4.1510    0.0672   -0.4617 C   0  0  0  0  0  0  0  0  0  0  0  0
    2.7260   -0.1831   -0.4875 N   0  0  0  0  0  0  0  0  0  0  0  0
    2.2903   -1.0962   -1.5189 C   0  0  0  0  0  0  0  0  0  0  0  0
    1.9291    0.3692    0.4384 C   0  0  0  0  0  0  0  0  0  0  0  0
    2.3743    1.0562    1.3659 O   0  0  0  0  0  0  0  0  0  0  0  0
    0.4582    0.1455    0.3157 C   0  0  0  0  0  0  0  0  0  0  0  0
   -0.2511    0.5672   -0.8017 C   0  0  0  0  0  0  0  0  0  0  0  0
   -1.6272    0.4333   -0.8630 C   0  0  0  0  0  0  0  0  0  0  0  0
   -2.3174   -0.1345    0.2036 C   0  0  0  0  0  0  0  0  0  0  0  0
   -1.6076   -0.5476    1.3338 C   0  0  0  0  0  0  0  0  0  0  0  0
   -0.2400   -0.3960    1.3922 C   0  0  0  0  0  0  0  0  0  0  0  0
   -3.6632   -0.3244    0.2481 O   0  0  0  0  0  0  0  0  0  0  0  0
   -4.4461    0.0792   -0.8613 C   0  0  0  0  0  0  0  0  0  0  0  0
    4.3589    0.7890    0.3254 H   0  0  0  0  0  0  0  0  0  0  0  0
    4.4711    0.4686   -1.4234 H   0  0  0  0  0  0  0  0  0  0  0  0
    4.6942   -0.8565   -0.2573 H   0  0  0  0  0  0  0  0  0  0  0  0
    1.2701   -1.4198   -1.3360 H   0  0  0  0  0  0  0  0  0  0  0  0
    2.9463   -1.9676   -1.5175 H   0  0  0  0  0  0  0  0  0  0  0  0
    2.3494   -0.6178   -2.4985 H   0  0  0  0  0  0  0  0  0  0  0  0
    0.2715    1.0209   -1.6299 H   0  0  0  0  0  0  0  0  0  0  0  0
   -2.1474    0.7770   -1.7418 H   0  0  0  0  0  0  0  0  0  0  0  0
   -2.1574   -0.9766    2.1561 H   0  0  0  0  0  0  0  0  0  0  0  0
    0.3046   -0.6992    2.2736 H   0  0  0  0  0  0  0  0  0  0  0  0
   -4.3635    1.1555   -1.0313 H   0  0  0  0  0  0  0  0  0  0  0  0
   -5.4699   -0.1712   -0.5933 H   0  0  0  0  0  0  0  0  0  0  0  0
   -4.1588   -0.4644   -1.7646 H   0  0  0  0  0  0  0  0  0  0  0  0
  1  2  1  0  0  0  0
  2  3  1  0  0  0  0
  2  4  4  0  0  0  0
  4  5  2  0  0  0  0
  4  6  1  0  0  0  0
  6  7  4  0  0  0  0
  7  8  4  0  0  0  0
  8  9  4  0  0  0  0
  9 10  4  0  0  0  0
  6 11  4  0  0  0  0
 10 11  4  0  0  0  0
  9 12  1  0  0  0  0
 12 13  1  0  0  0  0
  1 14  1  0  0  0  0
  1 15  1  0  0  0  0
  1 16  1  0  0  0  0
  3 17  1  0  0  0  0
  3 18  1  0  0  0  0
  3 19  1  0  0  0  0
  7 20  1  0  0  0  0
  8 21  1  0  0  0  0
 10 22  1  0  0  0  0
 11 23  1  0  0  0  0
 13 24  1  0  0  0  0
 13 25  1  0  0  0  0
 13 26  1  0  0  0  0
M  END
