 xtb: 6.7.1 (edcfbbe)
          04072509193D

 19 19  0     0  0            999 V2000
   -2.5343   -0.1162    0.4881 C   0  0  0  0  0  0  0  0  0  0  0  0
   -1.7981   -1.2515    0.1968 C   0  0  0  0  0  0  0  0  0  0  0  0
   -0.5177   -1.1358   -0.3179 C   0  0  0  0  0  0  0  0  0  0  0  0
    0.0420    0.1145   -0.5509 C   0  0  0  0  0  0  0  0  0  0  0  0
   -0.7056    1.2486   -0.2532 C   0  0  0  0  0  0  0  0  0  0  0  0
   -1.9846    1.1351    0.2610 C   0  0  0  0  0  0  0  0  0  0  0  0
    1.4466    0.2461   -1.0672 C   0  0  0  0  0  0  0  0  0  0  0  0
    2.4362    0.4864    0.0850 C   0  0  0  0  0  0  0  0  0  0  0  0
    2.5874   -0.6346    0.9275 O   0  0  0  0  0  0  0  0  0  0  0  0
   -3.5332   -0.2050    0.8878 H   0  0  0  0  0  0  0  0  0  0  0  0
   -2.2210   -2.2300    0.3696 H   0  0  0  0  0  0  0  0  0  0  0  0
    0.0512   -2.0252   -0.5484 H   0  0  0  0  0  0  0  0  0  0  0  0
   -0.2814    2.2263   -0.4316 H   0  0  0  0  0  0  0  0  0  0  0  0
   -2.5557    2.0242    0.4837 H   0  0  0  0  0  0  0  0  0  0  0  0
    1.7433   -0.6625   -1.5931 H   0  0  0  0  0  0  0  0  0  0  0  0
    1.5174    1.0906   -1.7531 H   0  0  0  0  0  0  0  0  0  0  0  0
    3.4335    0.6795   -0.3165 H   0  0  0  0  0  0  0  0  0  0  0  0
    2.1171    1.3598    0.6700 H   0  0  0  0  0  0  0  0  0  0  0  0
    1.7272   -0.8545    1.3118 H   0  0  0  0  0  0  0  0  0  0  0  0
  1  2  4  0  0  0  0
  2  3  4  0  0  0  0
  3  4  4  0  0  0  0
  4  5  4  0  0  0  0
  1  6  4  0  0  0  0
  5  6  4  0  0  0  0
  4  7  1  0  0  0  0
  7  8  1  0  0  0  0
  8  9  1  0  0  0  0
  1 10  1  0  0  0  0
  2 11  1  0  0  0  0
  3 12  1  0  0  0  0
  5 13  1  0  0  0  0
  6 14  1  0  0  0  0
  7 15  1  0  0  0  0
  7 16  1  0  0  0  0
  8 17  1  0  0  0  0
  8 18  1  0  0  0  0
  9 19  1  0  0  0  0
M  END
