  8
 
 C         -2.5373439441       -0.4552356680       -0.0001628632
 C         -1.5585029603        0.6959224967        0.0003326509
 I          0.4968267885        0.0085950472       -0.0006340015
 H         -3.5534941956       -0.0617053263       -0.0003084326
 H         -2.4096837368       -1.0780234859       -0.8831591152
 H         -2.4100586779       -1.0783674173        0.8826508645
 H         -1.6648621611        1.3135573914        0.8883499458
 H         -1.6642781665        1.3138109198       -0.8876276840
           8
        -10.63876043
 C         -2.5570495925       -0.4437439075        0.0000003631
 C         -1.5603737843        0.6918881759       -0.0000005734
 I          0.4830985097       -0.0270653741       -0.0000001328
 H         -3.5670091004       -0.0344541516        0.0000008319
 H         -2.4392486417       -1.0686077747       -0.8829565964
 H         -2.4392356364       -1.0686036666        0.8829577560
 H         -1.6572845861        1.3111704602        0.8879484181
 H         -1.6573199072        1.3111915945       -0.8879311797
