 8

C      0.145000    -0.696000     0.834000
C      1.410000    -0.375000     1.610000
I      3.127000    -0.515000     0.356000
H     -0.729000    -0.620000     1.490000
H     -0.000000     0.000000     0.000000
H      0.172000    -1.712000     0.427000
H      1.509000    -1.069000     2.452000
H      1.337000     0.635000     2.028000
