  21
 
 C          1.7938237368        1.3172699263       -0.8581667822
 C          1.4151623516       -0.0783989786       -0.3909192688
 C          2.5703114810       -0.7722859277        0.3124026832
 S         -0.0044576462        0.0035003342        0.7825100022
 C         -1.4228471119        0.0777902372       -0.3926798776
 C         -1.7988939251       -1.3206562882       -0.8536679236
 C         -2.5798413247        0.7734519896        0.3058860235
 H          0.9528578944        1.8114911274       -1.3406292951
 H          2.1058344014        1.9215669452       -0.0093883848
 H          2.6148506780        1.2633269612       -1.5713572344
 H          1.0749425045       -0.6839303735       -1.2351535684
 H          2.2751821264       -1.7657237359        0.6412401087
 H          2.8750755681       -0.1988768397        1.1849470205
 H          3.4198849112       -0.8623489025       -0.3620608665
 H         -1.0825231346        0.6798276762       -1.2393757694
 H         -2.6156302560       -1.2710429051       -1.5721190113
 H         -0.9551134907       -1.8180330131       -1.3279959527
 H         -2.1160805777       -1.9196266703       -0.0030335961
 H         -3.4269258689        0.8635322929       -0.3717234945
 H         -2.2850645865        1.7669982296        0.6348023947
 H         -2.8882438249        0.2011658005        1.1779082564
          21
        -23.23505076
 C          2.0462522664        1.2596704656       -0.3644165771
 C          1.1969014104       -0.0001495223       -0.4120858474
 C          2.0418375760       -1.2629696823       -0.3658742545
 S          0.0232706025        0.0013451196        1.0129571880
 C         -1.6341574688        0.0012123083        0.2157060009
 C         -1.8657688569        1.2668676644       -0.5935572859
 C         -1.8674050654       -1.2673396681       -0.5885268728
 H          1.4175054120        2.1467420157       -0.3895901490
 H          2.6323968785        1.2808461589        0.5514507922
 H          2.7254390212        1.2878019254       -1.2151998089
 H          0.5811251714        0.0014603969       -1.3125068317
 H          2.6282729840       -1.2870662466        0.5497293818
 H          2.7206077129       -1.2925630419       -1.2169548611
 H          1.4100653399       -2.1478750303       -0.3917170513
 H         -2.2932105245        0.0034407486        1.0884437464
 H         -2.8992923288        1.3039096680       -0.9337034012
 H         -1.6686201581        2.1458470365        0.0157711836
 H         -1.2196824241        1.2995612261       -1.4688512688
 H         -2.8996526073       -1.3019409793       -0.9326529269
 H         -1.6760307777       -2.1442241590        0.0256535769
 H         -1.2178959351       -1.3064502137       -1.4610055328
