 21

C      0.890000     0.328000     2.731000
C      1.299000     1.006000     1.428000
C      0.973000     0.134000     0.222000
S      0.446000     2.611000     1.276000
C      1.525000     3.575000     2.357000
C      2.798000     3.985000     1.612000
C      0.786000     4.807000     2.885000
H      1.132000     0.970000     3.586000
H     -0.189000     0.140000     2.760000
H      1.411000    -0.625000     2.877000
H      2.376000     1.204000     1.448000
H      1.274000     0.637000    -0.704000
H     -0.103000    -0.063000     0.151000
H      1.497000    -0.828000     0.259000
H      1.811000     2.947000     3.215000
H      3.460000     4.570000     2.260000
H      3.360000     3.104000     1.282000
H      2.571000     4.598000     0.733000
H      1.432000     5.399000     3.543000
H     -0.095000     4.517000     3.468000
H      0.459000     5.461000     2.069000
