 xtb: 6.7.1 (edcfbbe)
          04112512013D

 22 22  0     0  0            999 V2000
    5.7301    0.1674   -0.0873 C   0  0  0  0  0  0  0  0  0  0  0  0
    4.4579   -0.6710   -0.0844 C   0  0  0  0  0  0  0  0  0  0  0  0
    3.2150    0.1964   -0.0502 C   0  0  0  0  0  0  0  0  0  0  0  0
    3.2462    1.4141   -0.0323 O   0  0  0  0  0  0  0  0  0  0  0  0
    2.0657   -0.5407   -0.0422 N   0  0  0  0  0  0  0  0  0  0  0  0
    0.7447   -0.1068   -0.0143 C   0  0  0  0  0  0  0  0  0  0  0  0
    0.3825    1.2396    0.0101 C   0  0  0  0  0  0  0  0  0  0  0  0
   -0.9502    1.6005    0.0371 C   0  0  0  0  0  0  0  0  0  0  0  0
   -1.9418    0.6324    0.0403 C   0  0  0  0  0  0  0  0  0  0  0  0
   -1.5869   -0.7110    0.0159 C   0  0  0  0  0  0  0  0  0  0  0  0
   -0.2559   -1.0808   -0.0112 C   0  0  0  0  0  0  0  0  0  0  0  0
   -2.8127   -1.9365    0.0194 Cl  0  0  0  0  0  0  0  0  0  0  0  0
   -3.6137    1.0974    0.0743 Cl  0  0  0  0  0  0  0  0  0  0  0  0
    5.7737    0.7891    0.8035 H   0  0  0  0  0  0  0  0  0  0  0  0
    5.7455    0.8257   -0.9522 H   0  0  0  0  0  0  0  0  0  0  0  0
    6.6063   -0.4736   -0.1146 H   0  0  0  0  0  0  0  0  0  0  0  0
    4.4462   -1.3269    0.7878 H   0  0  0  0  0  0  0  0  0  0  0  0
    4.4201   -1.2929   -0.9806 H   0  0  0  0  0  0  0  0  0  0  0  0
    2.1763   -1.5470   -0.0590 H   0  0  0  0  0  0  0  0  0  0  0  0
    1.1475    1.9977    0.0080 H   0  0  0  0  0  0  0  0  0  0  0  0
   -1.2287    2.6410    0.0560 H   0  0  0  0  0  0  0  0  0  0  0  0
   -0.0057   -2.1290   -0.0298 H   0  0  0  0  0  0  0  0  0  0  0  0
  1  2  1  0  0  0  0
  2  3  1  0  0  0  0
  3  4  2  0  0  0  0
  3  5  4  0  0  0  0
  5  6  1  0  0  0  0
  6  7  4  0  0  0  0
  7  8  4  0  0  0  0
  8  9  4  0  0  0  0
  9 10  4  0  0  0  0
  6 11  4  0  0  0  0
 10 11  4  0  0  0  0
 10 12  1  0  0  0  0
  9 13  1  0  0  0  0
  1 14  1  0  0  0  0
  1 15  1  0  0  0  0
  1 16  1  0  0  0  0
  2 17  1  0  0  0  0
  2 18  1  0  0  0  0
  5 19  1  0  0  0  0
  7 20  1  0  0  0  0
  8 21  1  0  0  0  0
 11 22  1  0  0  0  0
M  END
