 xtb: 6.7.1 (edcfbbe)
          04112511313D

 18 17  0     0  0            999 V2000
    2.2829   -0.2497   -0.7553 C   0  0  0  0  0  0  0  0  0  0  0  0
    1.5294   -0.6307    0.5140 C   0  0  0  0  0  0  0  0  0  0  0  0
    0.3460    0.2886    0.8175 C   0  0  0  0  0  0  0  0  0  0  0  0
   -0.7678    0.2882   -0.2391 C   0  0  0  0  0  0  0  0  0  0  0  0
   -0.3618    0.6017   -1.2063 H   0  0  0  0  0  0  0  0  0  0  0  0
   -1.4362   -1.0783   -0.3826 C   0  0  0  0  0  0  0  0  0  0  0  0
   -1.7261    1.2927    0.0623 O   0  0  0  0  0  0  0  0  0  0  0  0
    1.6655   -0.3981   -1.6372 H   0  0  0  0  0  0  0  0  0  0  0  0
    3.1751   -0.8624   -0.8593 H   0  0  0  0  0  0  0  0  0  0  0  0
    2.5850    0.7944   -0.7191 H   0  0  0  0  0  0  0  0  0  0  0  0
    1.1853   -1.6630    0.4382 H   0  0  0  0  0  0  0  0  0  0  0  0
    2.2177   -0.5772    1.3605 H   0  0  0  0  0  0  0  0  0  0  0  0
   -0.0901   -0.0065    1.7761 H   0  0  0  0  0  0  0  0  0  0  0  0
    0.7057    1.3158    0.9177 H   0  0  0  0  0  0  0  0  0  0  0  0
   -2.3033   -0.9913   -1.0331 H   0  0  0  0  0  0  0  0  0  0  0  0
   -0.7470   -1.7937   -0.8194 H   0  0  0  0  0  0  0  0  0  0  0  0
   -1.7600   -1.4474    0.5884 H   0  0  0  0  0  0  0  0  0  0  0  0
   -2.1516    1.0725    0.9031 H   0  0  0  0  0  0  0  0  0  0  0  0
  1  2  1  0  0  0  0
  2  3  1  0  0  0  0
  3  4  1  0  0  0  0
  4  5  1  0  0  0  0
  4  6  1  0  0  0  0
  4  7  1  0  0  0  0
  1  8  1  0  0  0  0
  1  9  1  0  0  0  0
  1 10  1  0  0  0  0
  2 11  1  0  0  0  0
  2 12  1  0  0  0  0
  3 13  1  0  0  0  0
  3 14  1  0  0  0  0
  6 15  1  0  0  0  0
  6 16  1  0  0  0  0
  6 17  1  0  0  0  0
  7 18  1  0  0  0  0
M  END
