 xtb: 6.7.1 (edcfbbe)
          04112512353D

 17 16  0     0  0            999 V2000
   -2.6150    1.0656   -0.0942 C   0  0  0  0  0  0  0  0  0  0  0  0
   -2.1837   -0.2509    0.5416 C   0  0  0  0  0  0  0  0  0  0  0  0
   -0.8781   -0.7639   -0.0481 C   0  0  0  0  0  0  0  0  0  0  0  0
    0.1763    0.1339    0.3294 O   0  0  0  0  0  0  0  0  0  0  0  0
    1.3771   -0.0654   -0.1961 C   0  0  0  0  0  0  0  0  0  0  0  0
    1.6206   -0.9722   -0.9675 O   0  0  0  0  0  0  0  0  0  0  0  0
    2.3662    0.9616    0.2662 C   0  0  0  0  0  0  0  0  0  0  0  0
   -2.7801    0.9372   -1.1614 H   0  0  0  0  0  0  0  0  0  0  0  0
   -3.5369    1.4183    0.3591 H   0  0  0  0  0  0  0  0  0  0  0  0
   -1.8460    1.8201    0.0489 H   0  0  0  0  0  0  0  0  0  0  0  0
   -2.9472   -1.0122    0.3821 H   0  0  0  0  0  0  0  0  0  0  0  0
   -2.0481   -0.1152    1.6150 H   0  0  0  0  0  0  0  0  0  0  0  0
   -0.6312   -1.7620    0.3289 H   0  0  0  0  0  0  0  0  0  0  0  0
   -0.9198   -0.8131   -1.1415 H   0  0  0  0  0  0  0  0  0  0  0  0
    3.3328    0.4916    0.4193 H   0  0  0  0  0  0  0  0  0  0  0  0
    2.0104    1.4359    1.1743 H   0  0  0  0  0  0  0  0  0  0  0  0
    2.4730    1.7114   -0.5149 H   0  0  0  0  0  0  0  0  0  0  0  0
  1  2  1  0  0  0  0
  2  3  1  0  0  0  0
  3  4  1  0  0  0  0
  4  5  1  0  0  0  0
  5  6  2  0  0  0  0
  5  7  1  0  0  0  0
  1  8  1  0  0  0  0
  1  9  1  0  0  0  0
  1 10  1  0  0  0  0
  2 11  1  0  0  0  0
  2 12  1  0  0  0  0
  3 13  1  0  0  0  0
  3 14  1  0  0  0  0
  7 15  1  0  0  0  0
  7 16  1  0  0  0  0
  7 17  1  0  0  0  0
M  END
