24
 xtb: 6.7.1 (edcfbbe)
C            2.04715313143737        1.91758999948096       -0.40708898307343
C            2.30234056210925        0.41634473833146       -0.48422092957241
C            1.44583142078037       -0.40163039871197        0.49807892937245
H            1.65110626593957       -0.02617737063030        1.50942363702996
C            1.83353130962822       -1.88368464006570        0.44858241587885
C           -0.03430637470317       -0.20857249912174        0.24256889013815
C           -0.85767046146164        0.37505329227586        1.20889180865402
C           -2.21917562933814        0.56384766303939        0.97553319463922
C           -2.78090948523866        0.17129135794982       -0.23600120734987
C           -1.97040894065706       -0.41138738942491       -1.20969730587236
C           -0.61209356057799       -0.59913572325687       -0.97170354217202
H            2.23505049399703        2.29524331268710        0.60463312931823
H            2.69971185457774        2.46397670829900       -1.09565090326848
H            1.01065711499105        2.15949635356741       -0.66649893525834
H            2.11695443756427        0.05592185071331       -1.50456872909836
H            3.35782172168173        0.21003990395545       -0.26679365460129
H            2.89160650459082       -2.00939163856856        0.70196427531322
H            1.24043243965552       -2.47258566918297        1.15553769974176
H            1.67642642597689       -2.29719837281636       -0.55357911209521
H           -0.42472078542719        0.68690207775409        2.15598876922378
H           -2.83995787383573        1.01944192861488        1.74129890228306
H           -3.84031543287887        0.31769181971661       -0.42201037108040
H           -2.39911264654219       -0.71987278895471       -2.15865024094425
H            0.00651644372766       -1.05187737338543       -1.74165046941114
