17
 xtb: 6.7.1 (edcfbbe)
C           -2.77767253675405        0.21998471323468        0.45118149410061
C           -1.68288937169477        0.55518589627358       -0.57043937840378
C           -0.40355291059532       -0.13867981489385       -0.19909761937134
O           -0.22256953114544       -1.34223173970353       -0.30140022585441
O            0.51180952158650        0.71148978345038        0.30420717902345
C            1.79335571254635        0.14065203504672        0.72498798638029
C            2.72743909565943       -0.00938013150088       -0.45333249448341
H           -2.95257101149779       -0.85854971968745        0.49566034793784
H           -2.49959153718314        0.56908073057698        1.45011651106272
H           -3.71285040415097        0.70835885724101        0.16545331058218
H           -1.52255938494161        1.63395864043908       -0.62309576938442
H           -1.97581916352344        0.19372139304543       -1.56105091473122
H            2.17605834230091        0.86244930178296        1.44889239718165
H            1.60656000829139       -0.81067938517424        1.22917039262307
H            2.33494550547288       -0.71874612938245       -1.18675856767162
H            2.89211683887597        0.95483977589593       -0.94286181072375
H            3.69296138891130       -0.38242489865915       -0.09735947801453
