  12
 
 C         -2.4675784735        0.6938982270        0.0000761760
 C         -2.4683843438       -0.6909829540       -0.0000141816
 C         -1.2723851025       -1.3865774749       -0.0000909416
 C         -0.0698684272       -0.6961496947       -0.0000646545
 C         -0.0690549014        0.6961514525        0.0000441639
 C         -1.2707226279        1.3880381483        0.0001178651
 Cl         1.4194321359        1.5654621597        0.0002303888
 Cl         1.4175650793       -1.5671985428       -0.0000752951
 H         -3.3991725641        1.2382130126        0.0000997183
 H         -3.4006587484       -1.2341468517       -0.0001467965
 H         -1.2596260338       -2.4650347513       -0.0002228400
 H         -1.2566454967        2.4664799285        0.0002714543
          12
        -23.98066304
 C         -2.4657602228        0.6925377525        0.0000695702
 C         -2.4657809241       -0.6923679752       -0.0001196700
 C         -1.2693984833       -1.3870953492       -0.0000978150
 C         -0.0672781117       -0.6959910849        0.0000625766
 C         -0.0672526147        0.6959402727        0.0000192359
 C         -1.2692771874        1.3871458695        0.0001490576
 Cl         1.4205731279        1.5662436988       -0.0000726089
 Cl         1.4204485363       -1.5663098538        0.0000500579
 H         -3.3976062228        1.2362569092        0.0001074640
 H         -3.3976781901       -1.2360168020       -0.0002241863
 H         -1.2567651627       -2.4654924675       -0.0002553487
 H         -1.2565309492        2.4655596382        0.0001767390
