 xtb: 6.7.1 (edcfbbe)
          04112511533D

 26 27  0     0  0            999 V2000
    0.5299    1.9319    0.3427 C   0  0  0  0  0  0  0  0  0  0  0  0
    1.8771    2.1912    0.4200 C   0  0  0  0  0  0  0  0  0  0  0  0
    2.8164    1.1800    0.1931 C   0  0  0  0  0  0  0  0  0  0  0  0
    2.3525   -0.1139   -0.1178 C   0  0  0  0  0  0  0  0  0  0  0  0
    0.9785   -0.3603   -0.1845 C   0  0  0  0  0  0  0  0  0  0  0  0
    0.0589    0.6476    0.0421 C   0  0  0  0  0  0  0  0  0  0  0  0
   -1.3884    0.3938   -0.0385 C   0  0  0  0  0  0  0  0  0  0  0  0
   -2.2361    1.2950   -0.6831 C   0  0  0  0  0  0  0  0  0  0  0  0
   -3.5980    1.0756   -0.7721 C   0  0  0  0  0  0  0  0  0  0  0  0
   -4.1228   -0.0668   -0.1987 C   0  0  0  0  0  0  0  0  0  0  0  0
   -3.3326   -0.9896    0.4590 C   0  0  0  0  0  0  0  0  0  0  0  0
   -1.9758   -0.7379    0.5225 C   0  0  0  0  0  0  0  0  0  0  0  0
   -1.2083   -1.6368    1.1917 F   0  0  0  0  0  0  0  0  0  0  0  0
   -5.4591   -0.2967   -0.2779 F   0  0  0  0  0  0  0  0  0  0  0  0
    3.3082   -1.1942   -0.3698 C   0  0  0  0  0  0  0  0  0  0  0  0
    4.5269   -1.0518   -0.3079 O   0  0  0  0  0  0  0  0  0  0  0  0
    2.7660   -2.3596   -0.6781 O   0  0  0  0  0  0  0  0  0  0  0  0
    4.1129    1.4956    0.2824 O   0  0  0  0  0  0  0  0  0  0  0  0
   -0.1760    2.7235    0.5383 H   0  0  0  0  0  0  0  0  0  0  0  0
    2.2461    3.1750    0.6601 H   0  0  0  0  0  0  0  0  0  0  0  0
    0.6520   -1.3580   -0.4313 H   0  0  0  0  0  0  0  0  0  0  0  0
   -1.8097    2.1740   -1.1379 H   0  0  0  0  0  0  0  0  0  0  0  0
   -4.2478    1.7710   -1.2766 H   0  0  0  0  0  0  0  0  0  0  0  0
   -3.7540   -1.8720    0.9104 H   0  0  0  0  0  0  0  0  0  0  0  0
    3.4407   -3.0486   -0.8335 H   0  0  0  0  0  0  0  0  0  0  0  0
    4.6644    0.7004    0.1058 H   0  0  0  0  0  0  0  0  0  0  0  0
  1  2  4  0  0  0  0
  2  3  4  0  0  0  0
  3  4  4  0  0  0  0
  4  5  4  0  0  0  0
  1  6  4  0  0  0  0
  5  6  4  0  0  0  0
  6  7  1  0  0  0  0
  7  8  4  0  0  0  0
  8  9  4  0  0  0  0
  9 10  4  0  0  0  0
 10 11  4  0  0  0  0
  7 12  4  0  0  0  0
 11 12  4  0  0  0  0
 12 13  1  0  0  0  0
 10 14  1  0  0  0  0
  4 15  1  0  0  0  0
 15 16  2  0  0  0  0
 15 17  1  0  0  0  0
  3 18  1  0  0  0  0
  1 19  1  0  0  0  0
  2 20  1  0  0  0  0
  5 21  1  0  0  0  0
  8 22  1  0  0  0  0
  9 23  1  0  0  0  0
 11 24  1  0  0  0  0
 17 25  1  0  0  0  0
 18 26  1  0  0  0  0
M  END
