 xtb: 6.7.1 (edcfbbe)
          04112512193D

 17 16  0     0  0            999 V2000
   -2.1808    1.3103    0.0674 C   0  0  0  0  0  0  0  0  0  0  0  0
   -1.8948   -0.1508    0.4123 C   0  0  0  0  0  0  0  0  0  0  0  0
   -0.5575   -0.6019   -0.1172 C   0  0  0  0  0  0  0  0  0  0  0  0
   -0.3858   -1.5836   -0.8131 O   0  0  0  0  0  0  0  0  0  0  0  0
    0.4300    0.1903    0.2695 O   0  0  0  0  0  0  0  0  0  0  0  0
    1.7594   -0.1362   -0.1670 C   0  0  0  0  0  0  0  0  0  0  0  0
    2.7064    0.9193    0.3700 C   0  0  0  0  0  0  0  0  0  0  0  0
   -2.2101    1.4477   -1.0106 H   0  0  0  0  0  0  0  0  0  0  0  0
   -3.1416    1.6020    0.4806 H   0  0  0  0  0  0  0  0  0  0  0  0
   -1.4084    1.9520    0.4809 H   0  0  0  0  0  0  0  0  0  0  0  0
   -2.6578   -0.8090   -0.0029 H   0  0  0  0  0  0  0  0  0  0  0  0
   -1.8748   -0.2711    1.4969 H   0  0  0  0  0  0  0  0  0  0  0  0
    2.0094   -1.1349    0.2062 H   0  0  0  0  0  0  0  0  0  0  0  0
    1.7660   -0.1717   -1.2614 H   0  0  0  0  0  0  0  0  0  0  0  0
    3.7202    0.6792    0.0674 H   0  0  0  0  0  0  0  0  0  0  0  0
    2.4373    1.8959   -0.0215 H   0  0  0  0  0  0  0  0  0  0  0  0
    2.6526    0.9491    1.4541 H   0  0  0  0  0  0  0  0  0  0  0  0
  1  2  1  0  0  0  0
  2  3  1  0  0  0  0
  3  4  2  0  0  0  0
  3  5  1  0  0  0  0
  5  6  1  0  0  0  0
  6  7  1  0  0  0  0
  1  8  1  0  0  0  0
  1  9  1  0  0  0  0
  1 10  1  0  0  0  0
  2 11  1  0  0  0  0
  2 12  1  0  0  0  0
  6 13  1  0  0  0  0
  6 14  1  0  0  0  0
  7 15  1  0  0  0  0
  7 16  1  0  0  0  0
  7 17  1  0  0  0  0
M  END
