 xtb: 6.7.1 (edcfbbe)
          04112511103D

 18 17  0     0  0            999 V2000
    2.2782   -0.3396   -0.7486 C   0  0  0  0  0  0  0  0  0  0  0  0
    1.5261   -0.5928    0.5535 C   0  0  0  0  0  0  0  0  0  0  0  0
    0.3601    0.3708    0.7762 C   0  0  0  0  0  0  0  0  0  0  0  0
   -0.7654    0.2838   -0.2638 C   0  0  0  0  0  0  0  0  0  0  0  0
   -0.3665    0.5215   -1.2624 H   0  0  0  0  0  0  0  0  0  0  0  0
   -1.4212   -1.0923   -0.3064 C   0  0  0  0  0  0  0  0  0  0  0  0
   -1.7943    1.2171    0.0443 O   0  0  0  0  0  0  0  0  0  0  0  0
    2.6107    0.6947   -0.8021 H   0  0  0  0  0  0  0  0  0  0  0  0
    1.6489   -0.5449   -1.6105 H   0  0  0  0  0  0  0  0  0  0  0  0
    3.1523   -0.9836   -0.8067 H   0  0  0  0  0  0  0  0  0  0  0  0
    1.1645   -1.6213    0.5732 H   0  0  0  0  0  0  0  0  0  0  0  0
    2.2198   -0.4746    1.3890 H   0  0  0  0  0  0  0  0  0  0  0  0
   -0.0804    0.1794    1.7579 H   0  0  0  0  0  0  0  0  0  0  0  0
    0.7487    1.3933    0.7797 H   0  0  0  0  0  0  0  0  0  0  0  0
   -2.3000   -1.0469   -0.9443 H   0  0  0  0  0  0  0  0  0  0  0  0
   -0.7339   -1.8322   -0.7025 H   0  0  0  0  0  0  0  0  0  0  0  0
   -1.7356   -1.3831    0.6924 H   0  0  0  0  0  0  0  0  0  0  0  0
   -1.4157    2.1042    0.1029 H   0  0  0  0  0  0  0  0  0  0  0  0
  1  2  1  0  0  0  0
  2  3  1  0  0  0  0
  3  4  1  0  0  0  0
  4  5  1  0  0  0  0
  4  6  1  0  0  0  0
  4  7  1  0  0  0  0
  1  8  1  0  0  0  0
  1  9  1  0  0  0  0
  1 10  1  0  0  0  0
  2 11  1  0  0  0  0
  2 12  1  0  0  0  0
  3 13  1  0  0  0  0
  3 14  1  0  0  0  0
  6 15  1  0  0  0  0
  6 16  1  0  0  0  0
  6 17  1  0  0  0  0
  7 18  1  0  0  0  0
M  END
