  22
 
 C          2.0598466926        1.2804550699       -0.7911350776
 C          2.0832105126       -0.1702517376       -0.3203975103
 C          3.4982617235       -0.5794167578        0.0787719884
 C          1.1244949850       -0.3673039066        0.8685630583
 C         -0.3010478218       -0.1984517693        0.4511331413
 C         -1.0031102833       -1.2084158552       -0.2111126885
 N         -2.2508018060       -1.0505207658       -0.6141928824
 C         -2.8250375856        0.1178939668       -0.3616936867
 C         -2.1415818649        1.1246156135        0.3036836982
 N         -0.8896439648        0.9657425450        0.7039170555
 H          1.0487196068        1.5881504995       -1.0458232486
 H          2.6904178098        1.4065933594       -1.6683724748
 H          2.4260052798        1.9370921773       -0.0052116114
 H          1.7498849617       -0.8140337128       -1.1429771970
 H          3.5317762600       -1.6264873818        0.3717695587
 H          4.1825831542       -0.4352583680       -0.7541043750
 H          3.8446056475        0.0235070226        0.9153672985
 H          1.3544413986        0.3678855263        1.6403662608
 H          1.2633083615       -1.3708513164        1.2763336461
 H         -0.5517455626       -2.1699237916       -0.4188145214
 H         -3.8453794963        0.2352271009       -0.6985733614
 H         -2.5959438264        2.0810938862        0.5251770836
          22
        -29.08523055
 C          1.9919255850       -1.0689055597        1.0925174211
 C          2.0851994620        0.2247815122        0.2894184034
 C          3.5149748944        0.4520323654       -0.1935062737
 C          1.1263001025        0.1840788654       -0.9135384866
 C         -0.3025361414        0.1143055734       -0.4780221627
 C         -0.9639282780        1.2124689504        0.0766976871
 N         -2.2156266769        1.1437068005        0.4924410537
 C         -2.8351000771       -0.0209632766        0.3574974360
 C         -2.1931563048       -1.1144393528       -0.2044691467
 N         -0.9366083107       -1.0452048042       -0.6154023500
 H          2.2725765333       -1.9181940931        0.4739006253
 H          0.9778490343       -1.2301417216        1.4503180824
 H          2.6575752071       -1.0319828441        1.9519297686
 H          1.7952123313        1.0613094166        0.9358006885
 H          3.5948774133        1.3882078555       -0.7417454887
 H          4.1982844998        0.4911509344        0.6516311263
 H          3.8263591710       -0.3584130642       -0.8489587385
 H          1.3470691065       -0.6935336711       -1.5223058304
 H          1.2740727278        1.0826265946       -1.5171139820
 H         -0.4766390386        2.1724822333        0.1861351788
 H         -3.8580845520       -0.0648254283        0.7039545658
 H         -2.6854512534       -2.0692525307       -0.3316907395
