  22
 
 C          0.1920000000       -0.1010000000        0.9400000000
 C         -0.6430000000        0.6470000000        1.9820000000
 C         -0.0720000000        0.3940000000        3.3790000000
 C         -0.6900000000        2.1630000000        1.7040000000
 C         -1.2870000000        2.5200000000        0.3650000000
 C         -2.6410000000        2.7420000000        0.2400000000
 N         -3.2050000000        3.0610000000       -0.9420000000
 C         -2.3680000000        3.1500000000       -1.9940000000
 C         -1.0140000000        2.9290000000       -1.8690000000
 N         -0.4490000000        2.6090000000       -0.6880000000
 H         -0.1950000000        0.0620000000       -0.0720000000
 H          0.1970000000       -1.1790000000        1.1330000000
 H          1.2330000000        0.2380000000        0.9620000000
 H         -1.6620000000        0.2390000000        1.9590000000
 H         -0.6560000000        0.9220000000        4.1400000000
 H         -0.0810000000       -0.6730000000        3.6250000000
 H          0.9610000000        0.7500000000        3.4470000000
 H          0.3180000000        2.5890000000        1.7890000000
 H         -1.2870000000        2.6640000000        2.4780000000
 H         -3.3210000000        2.6710000000        1.0800000000
 H         -2.8220000000        3.4060000000       -2.9430000000
 H         -0.3410000000        3.0010000000       -2.7140000000
