 xtb: 6.7.1 (edcfbbe)
          04112512523D

 21 20  0     0  0            999 V2000
    2.7786   -0.0872   -0.2455 C   0  0  0  0  0  0  0  0  0  0  0  0
    1.3658   -0.1172   -0.8181 C   0  0  0  0  0  0  0  0  0  0  0  0
    0.3110   -0.2016    0.2940 C   0  0  0  0  0  0  0  0  0  0  0  0
    0.5996   -1.0024    0.9864 H   0  0  0  0  0  0  0  0  0  0  0  0
   -1.0989   -0.5330   -0.2475 C   0  0  0  0  0  0  0  0  0  0  0  0
   -2.0405   -0.8269    0.9198 C   0  0  0  0  0  0  0  0  0  0  0  0
   -1.6758    0.5840   -1.1170 C   0  0  0  0  0  0  0  0  0  0  0  0
    0.3165    0.9640    1.0960 O   0  0  0  0  0  0  0  0  0  0  0  0
    3.5083    0.0710   -1.0354 H   0  0  0  0  0  0  0  0  0  0  0  0
    3.0055   -1.0260    0.2544 H   0  0  0  0  0  0  0  0  0  0  0  0
    2.8695    0.7158    0.4825 H   0  0  0  0  0  0  0  0  0  0  0  0
    1.1979    0.7879   -1.4054 H   0  0  0  0  0  0  0  0  0  0  0  0
    1.2526   -0.9774   -1.4790 H   0  0  0  0  0  0  0  0  0  0  0  0
   -1.0016   -1.4371   -0.8574 H   0  0  0  0  0  0  0  0  0  0  0  0
   -3.0483   -1.0167    0.5597 H   0  0  0  0  0  0  0  0  0  0  0  0
   -1.7004   -1.6972    1.4761 H   0  0  0  0  0  0  0  0  0  0  0  0
   -2.0641    0.0228    1.5988 H   0  0  0  0  0  0  0  0  0  0  0  0
   -1.8383    1.4836   -0.5277 H   0  0  0  0  0  0  0  0  0  0  0  0
   -2.6363    0.2724   -1.5201 H   0  0  0  0  0  0  0  0  0  0  0  0
   -1.0190    0.8152   -1.9512 H   0  0  0  0  0  0  0  0  0  0  0  0
    0.1322    1.7235    0.5261 H   0  0  0  0  0  0  0  0  0  0  0  0
  1  2  1  0  0  0  0
  2  3  1  0  0  0  0
  3  4  1  0  0  0  0
  3  5  1  0  0  0  0
  5  6  1  0  0  0  0
  5  7  1  0  0  0  0
  3  8  1  0  0  0  0
  1  9  1  0  0  0  0
  1 10  1  0  0  0  0
  1 11  1  0  0  0  0
  2 12  1  0  0  0  0
  2 13  1  0  0  0  0
  5 14  1  0  0  0  0
  6 15  1  0  0  0  0
  6 16  1  0  0  0  0
  6 17  1  0  0  0  0
  7 18  1  0  0  0  0
  7 19  1  0  0  0  0
  7 20  1  0  0  0  0
  8 21  1  0  0  0  0
M  END
