 xtb: 6.7.1 (edcfbbe)
          04112511493D

 21 20  0     0  0            999 V2000
    1.9521   -0.7573   -0.7971 C   0  0  0  0  0  0  0  0  0  0  0  0
    1.1978   -0.1148    0.3632 C   0  0  0  0  0  0  0  0  0  0  0  0
    0.9008   -0.8998    1.0769 H   0  0  0  0  0  0  0  0  0  0  0  0
   -0.0591    0.6447   -0.1073 C   0  0  0  0  0  0  0  0  0  0  0  0
   -1.3818   -0.0724    0.1871 C   0  0  0  0  0  0  0  0  0  0  0  0
   -2.5522    0.8541   -0.1410 C   0  0  0  0  0  0  0  0  0  0  0  0
   -1.5122   -1.3735   -0.6009 C   0  0  0  0  0  0  0  0  0  0  0  0
    2.1219    0.7534    1.0081 O   0  0  0  0  0  0  0  0  0  0  0  0
    2.8081   -1.3095   -0.4178 H   0  0  0  0  0  0  0  0  0  0  0  0
    1.3042   -1.4303   -1.3479 H   0  0  0  0  0  0  0  0  0  0  0  0
    2.3153    0.0217   -1.4625 H   0  0  0  0  0  0  0  0  0  0  0  0
   -0.0748    1.6163    0.3926 H   0  0  0  0  0  0  0  0  0  0  0  0
    0.0148    0.8388   -1.1785 H   0  0  0  0  0  0  0  0  0  0  0  0
   -1.4189   -0.3102    1.2568 H   0  0  0  0  0  0  0  0  0  0  0  0
   -2.5419    1.1145   -1.1969 H   0  0  0  0  0  0  0  0  0  0  0  0
   -2.4940    1.7717    0.4396 H   0  0  0  0  0  0  0  0  0  0  0  0
   -3.4978    0.3664    0.0829 H   0  0  0  0  0  0  0  0  0  0  0  0
   -0.7346   -2.0792   -0.3214 H   0  0  0  0  0  0  0  0  0  0  0  0
   -2.4766   -1.8361   -0.4037 H   0  0  0  0  0  0  0  0  0  0  0  0
   -1.4383   -1.1775   -1.6683 H   0  0  0  0  0  0  0  0  0  0  0  0
    1.7192    1.1158    1.8078 H   0  0  0  0  0  0  0  0  0  0  0  0
  1  2  1  0  0  0  0
  2  3  1  0  0  0  0
  2  4  1  0  0  0  0
  4  5  1  0  0  0  0
  5  6  1  0  0  0  0
  5  7  1  0  0  0  0
  2  8  1  0  0  0  0
  1  9  1  0  0  0  0
  1 10  1  0  0  0  0
  1 11  1  0  0  0  0
  4 12  1  0  0  0  0
  4 13  1  0  0  0  0
  5 14  1  0  0  0  0
  6 15  1  0  0  0  0
  6 16  1  0  0  0  0
  6 17  1  0  0  0  0
  7 18  1  0  0  0  0
  7 19  1  0  0  0  0
  7 20  1  0  0  0  0
  8 21  1  0  0  0  0
M  END
