  23
 
 C         -0.3790000000       -0.7020000000        0.7540000000
 C          0.4040000000       -0.5830000000        2.0510000000
 C          1.8850000000       -0.8880000000        1.8410000000
 C          2.6750000000       -0.7720000000        3.1240000000
 O          2.2090000000       -0.4720000000        4.2150000000
 O          3.9850000000       -1.0580000000        2.8640000000
 C          4.8660000000       -0.9910000000        3.9910000000
 C          6.2690000000       -1.3350000000        3.5260000000
 C          7.2620000000       -1.2840000000        4.6730000000
 H         -1.4370000000       -0.4790000000        0.9280000000
 H         -0.0030000000       -0.0010000000        0.0020000000
 H         -0.3080000000       -1.7150000000        0.3450000000
 H         -0.0180000000       -1.2710000000        2.7930000000
 H          0.2840000000        0.4300000000        2.4550000000
 H          2.3080000000       -0.1850000000        1.1150000000
 H          2.0010000000       -1.9090000000        1.4590000000
 H          4.5110000000       -1.7010000000        4.7400000000
 H          4.8180000000        0.0210000000        4.3970000000
 H          6.2760000000       -2.3330000000        3.0720000000
 H          6.5780000000       -0.6420000000        2.7340000000
 H          8.2710000000       -1.5330000000        4.3290000000
 H          7.2900000000       -0.2790000000        5.1070000000
 H          6.9850000000       -1.9880000000        5.4630000000
