18
 xtb: 6.7.1 (edcfbbe)
C            1.48619548997955       -1.45460696807161       -0.04056016724958
C            1.20272142645506       -0.02716592186440        0.43288560386845
C            1.74270744407547        0.99413777710548       -0.57092080831408
C           -0.28722784318571        0.19332543992923        0.75093825440890
C           -1.22834137616074        0.03581412175996       -0.43380230116170
O           -2.60949332828149        0.20647209520004       -0.04071995193931
H            2.56481845351946       -1.62756063565754       -0.11874453377974
H            1.05157437699536       -1.64177531313542       -1.02869388117600
H            1.07506058978720       -2.19422775047048        0.65529415050301
H            1.74098034180049        0.12129966973907        1.37865534896393
H            1.51962310677360        2.01960623395329       -0.25626427113732
H            1.31021017557100        0.84387123528749       -1.56604953813875
H            2.82961874176416        0.90040765610098       -0.66821558065099
H           -0.41710733651020        1.20417098320113        1.16208795594648
H           -0.59489525263347       -0.51527575998516        1.53069240934645
H           -0.98390627746210        0.75036657422827       -1.23096140128258
H           -1.17080633932474       -0.97256301425812       -0.85397212071888
H           -2.68992237442802        1.09818372453731        0.32229488210867
