 xtb: 6.7.1 (edcfbbe)
          04112511503D

 26 26  0     0  0            999 V2000
    4.1775   -0.2441   -0.0596 C   0  0  0  0  0  0  0  0  0  0  0  0
    2.7460   -0.4204    0.0532 N   0  0  0  0  0  0  0  0  0  0  0  0
    2.3207   -1.7571    0.3960 C   0  0  0  0  0  0  0  0  0  0  0  0
    1.9167    0.6083   -0.1566 C   0  0  0  0  0  0  0  0  0  0  0  0
    2.3175    1.7388   -0.4529 O   0  0  0  0  0  0  0  0  0  0  0  0
    0.4491    0.3394   -0.0172 C   0  0  0  0  0  0  0  0  0  0  0  0
   -0.1867    0.5283    1.2068 C   0  0  0  0  0  0  0  0  0  0  0  0
   -1.5486    0.3496    1.3180 C   0  0  0  0  0  0  0  0  0  0  0  0
   -2.3085   -0.0152    0.2043 C   0  0  0  0  0  0  0  0  0  0  0  0
   -1.6768   -0.1942   -1.0218 C   0  0  0  0  0  0  0  0  0  0  0  0
   -0.3079   -0.0120   -1.1250 C   0  0  0  0  0  0  0  0  0  0  0  0
   -3.6434   -0.1679    0.4236 O   0  0  0  0  0  0  0  0  0  0  0  0
   -4.4752   -0.5292   -0.6639 C   0  0  0  0  0  0  0  0  0  0  0  0
    4.3757    0.7944   -0.3166 H   0  0  0  0  0  0  0  0  0  0  0  0
    4.5733   -0.8955   -0.8394 H   0  0  0  0  0  0  0  0  0  0  0  0
    4.6584   -0.4842    0.8891 H   0  0  0  0  0  0  0  0  0  0  0  0
    2.7539   -2.0439    1.3555 H   0  0  0  0  0  0  0  0  0  0  0  0
    2.6650   -2.4571   -0.3671 H   0  0  0  0  0  0  0  0  0  0  0  0
    1.2379   -1.8036    0.4636 H   0  0  0  0  0  0  0  0  0  0  0  0
    0.3917    0.8179    2.0707 H   0  0  0  0  0  0  0  0  0  0  0  0
   -2.0548    0.4904    2.2594 H   0  0  0  0  0  0  0  0  0  0  0  0
   -2.2351   -0.4694   -1.9014 H   0  0  0  0  0  0  0  0  0  0  0  0
    0.1758   -0.1446   -2.0811 H   0  0  0  0  0  0  0  0  0  0  0  0
   -4.1916   -1.5030   -1.0706 H   0  0  0  0  0  0  0  0  0  0  0  0
   -4.4442    0.2269   -1.4524 H   0  0  0  0  0  0  0  0  0  0  0  0
   -5.4788   -0.5838   -0.2489 H   0  0  0  0  0  0  0  0  0  0  0  0
  1  2  1  0  0  0  0
  2  3  1  0  0  0  0
  2  4  4  0  0  0  0
  4  5  2  0  0  0  0
  4  6  1  0  0  0  0
  6  7  4  0  0  0  0
  7  8  4  0  0  0  0
  8  9  4  0  0  0  0
  9 10  4  0  0  0  0
  6 11  4  0  0  0  0
 10 11  4  0  0  0  0
  9 12  1  0  0  0  0
 12 13  1  0  0  0  0
  1 14  1  0  0  0  0
  1 15  1  0  0  0  0
  1 16  1  0  0  0  0
  3 17  1  0  0  0  0
  3 18  1  0  0  0  0
  3 19  1  0  0  0  0
  7 20  1  0  0  0  0
  8 21  1  0  0  0  0
 10 22  1  0  0  0  0
 11 23  1  0  0  0  0
 13 24  1  0  0  0  0
 13 25  1  0  0  0  0
 13 26  1  0  0  0  0
M  END
