  5
 
 C         -0.1050000000        0.0140000000       -0.0440000000
 Br         0.1790000000       -1.9020000000        0.1250000000
 Br        -0.1070000000        0.9100000000        1.6810000000
 Br         1.1380000000        0.8320000000       -1.2960000000
 H         -1.1050000000        0.1450000000       -0.4660000000
