14
 xtb: 6.7.1 (edcfbbe)
C           -1.06499208682130       -0.13693698221350        0.74427434967549
C            0.21856924296126        0.58411325802820        0.35677034543386
C            1.18785564078438       -0.27938533233797       -0.45267475450417
O            1.61322794248726       -1.44275191682373        0.26982477286189
O           -0.07846929658492        1.77686919189572       -0.38807228703478
O           -1.87989660629236       -0.43797260971912       -0.40216157250037
H           -1.66696743374615        0.52039072696779        1.37881164598176
H           -0.83002698483821       -1.04697452711969        1.31040589707031
H            0.71770582483963        0.90751048228033        1.27968558202718
H            2.04786108905380        0.33639128963400       -0.74771293153835
H            0.70146884843598       -0.64060667160212       -1.36640292605775
H            2.11998551011448       -1.13940156348294        1.03471351732886
H           -0.68954584349170        1.51057771366992       -1.09145137491135
H           -1.47556745187330       -1.17925589344603       -0.87060606465747
