 xtb: 6.7.1 (edcfbbe)
          04112511103D

 18 17  0     0  0            999 V2000
    2.3831   -0.1603   -0.6745 C   0  0  0  0  0  0  0  0  0  0  0  0
    1.5696    0.2697    0.5409 C   0  0  0  0  0  0  0  0  0  0  0  0
    0.2672   -0.5188    0.6924 C   0  0  0  0  0  0  0  0  0  0  0  0
   -0.8252   -0.0628   -0.2848 C   0  0  0  0  0  0  0  0  0  0  0  0
   -0.4419   -0.0946   -1.3100 H   0  0  0  0  0  0  0  0  0  0  0  0
   -2.0586   -0.9604   -0.1797 C   0  0  0  0  0  0  0  0  0  0  0  0
   -1.1632    1.2993   -0.0852 O   0  0  0  0  0  0  0  0  0  0  0  0
    2.6297   -1.2181   -0.6131 H   0  0  0  0  0  0  0  0  0  0  0  0
    3.3094    0.4067   -0.7269 H   0  0  0  0  0  0  0  0  0  0  0  0
    1.8285    0.0116   -1.5934 H   0  0  0  0  0  0  0  0  0  0  0  0
    2.1749    0.1298    1.4389 H   0  0  0  0  0  0  0  0  0  0  0  0
    1.3287    1.3319    0.4593 H   0  0  0  0  0  0  0  0  0  0  0  0
    0.4593   -1.5804    0.5320 H   0  0  0  0  0  0  0  0  0  0  0  0
   -0.1122   -0.3956    1.7102 H   0  0  0  0  0  0  0  0  0  0  0  0
   -1.8098   -1.9733   -0.4812 H   0  0  0  0  0  0  0  0  0  0  0  0
   -2.4263   -0.9805    0.8444 H   0  0  0  0  0  0  0  0  0  0  0  0
   -2.8460   -0.5840   -0.8280 H   0  0  0  0  0  0  0  0  0  0  0  0
   -1.5525    1.3936    0.7957 H   0  0  0  0  0  0  0  0  0  0  0  0
  1  2  1  0  0  0  0
  2  3  1  0  0  0  0
  3  4  1  0  0  0  0
  4  5  1  0  0  0  0
  4  6  1  0  0  0  0
  4  7  1  0  0  0  0
  1  8  1  0  0  0  0
  1  9  1  0  0  0  0
  1 10  1  0  0  0  0
  2 11  1  0  0  0  0
  2 12  1  0  0  0  0
  3 13  1  0  0  0  0
  3 14  1  0  0  0  0
  6 15  1  0  0  0  0
  6 16  1  0  0  0  0
  6 17  1  0  0  0  0
  7 18  1  0  0  0  0
M  END
