  23
 
 C         -6.2018874160       -0.1146104114        0.0008354505
 C         -4.8670566567        0.6202890372        0.0004571340
 C         -3.6874800994       -0.3491804757       -0.0004768441
 C         -2.3468151335        0.3807133840       -0.0021117033
 C         -1.1677444716       -0.5899091999       -0.0070203167
 C          0.1689346988        0.1495933408       -0.0070377399
 C          1.3265861145       -0.8298251428        0.0002980030
 Br         3.0445127306        0.1060856286       -0.0011824220
 H         -7.0278890129        0.5923023759        0.0011512702
 H         -6.2896050359       -0.7454393704       -0.8809785144
 H         -6.2891499462       -0.7456486214        0.8825774746
 H         -4.8057053743        1.2621548717        0.8820725400
 H         -4.8065033724        1.2625332331       -0.8809274680
 H         -3.7501572994       -0.9915855598       -0.8820219871
 H         -3.7485690537       -0.9913371894        0.8812934889
 H         -2.2824386896        1.0207306553        0.8807521785
 H         -2.2869946066        1.0251336481       -0.8820968002
 H         -1.2291901140       -1.2307021184       -0.8899416565
 H         -1.2255573297       -1.2342819960        0.8736193697
 H          0.2343364666        0.7877375354       -0.8912554553
 H          0.2294827376        0.7934133916        0.8733981905
 H          1.3214916912       -1.4539441339        0.8933345169
 H          1.3278151322       -1.4605146297       -0.8879491122
          23
        -26.73454195
 C         -5.5282493473       -0.9295805279        0.1871815030
 C         -4.4789409397        0.0217320303       -0.3745655692
 C         -3.1093399881       -0.2056709102        0.2604546893
 C         -2.0531282788        0.7458862223       -0.2956377545
 C         -0.6842243660        0.5078830790        0.3361597119
 C          0.3726210168        1.4575747053       -0.2221037894
 C          1.7381945402        1.2478677361        0.4041148421
 Br         2.4866287326       -0.4997674651       -0.0575822597
 H         -5.6333182231       -0.7908513446        1.2610564901
 H         -6.4950553471       -0.7518938578       -0.2778792859
 H         -5.2431195706       -1.9629754521        0.0026770227
 H         -4.7921090091        1.0535018934       -0.1975636116
 H         -4.4028198209       -0.1195380892       -1.4551650920
 H         -2.7959503145       -1.2366151282        0.0806829070
 H         -3.1866592529       -0.0680663315        1.3417478490
 H         -2.3635235162        1.7779276261       -0.1126292060
 H         -1.9799197619        0.6102678883       -1.3773217252
 H         -0.3792995274       -0.5242850824        0.1484814966
 H         -0.7568234577        0.6422574394        1.4188250810
 H          0.4428002754        1.3312154845       -1.3052754223
 H          0.0745393638        2.4920658723       -0.0262313562
 H          2.4609825343        1.9811468555        0.0487203205
 H          1.6902199171        1.2745523135        1.4921978208
