  23
 
 C         -3.6400000000        0.4970000000        0.5280000000
 C         -2.1630000000        0.6280000000        0.8620000000
 C         -1.2840000000        0.0890000000       -0.2660000000
 C          0.2020000000        0.2220000000        0.0740000000
 C          1.0800000000       -0.3190000000       -1.0570000000
 C          2.5790000000       -0.2080000000       -0.7660000000
 C          3.4450000000       -0.7470000000       -1.8930000000
 Br         5.3270000000       -0.5590000000       -1.4210000000
 H         -4.2500000000        0.8890000000        1.3480000000
 H         -3.8890000000        1.0590000000       -0.3780000000
 H         -3.9160000000       -0.5500000000        0.3700000000
 H         -1.9540000000        0.0830000000        1.7900000000
 H         -1.9270000000        1.6830000000        1.0450000000
 H         -1.5000000000        0.6350000000       -1.1920000000
 H         -1.5260000000       -0.9660000000       -0.4480000000
 H          0.4080000000       -0.3230000000        1.0020000000
 H          0.4440000000        1.2760000000        0.2550000000
 H          0.8680000000        0.2420000000       -1.9750000000
 H          0.8210000000       -1.3650000000       -1.2590000000
 H          2.8160000000        0.8500000000       -0.5950000000
 H          2.8110000000       -0.7310000000        0.1710000000
 H          3.2850000000       -1.8130000000       -2.0710000000
 H          3.3010000000       -0.1920000000       -2.8230000000
