25
 xtb: 6.7.1 (edcfbbe)
C            3.53577844376936       -0.07306523372069       -0.81069757257566
C            2.57744427563896        0.08597938232835        0.33505374932603
C            3.00487735421230        0.12479830662208        1.60096080449020
C            1.12155425492885        0.17352100314750       -0.06652282600060
H            1.08074915770576        0.71161947546613       -1.02550813216275
C            0.52837989905759       -1.22834789410463       -0.31187976231679
C           -0.84784154259942       -1.12596846610009       -0.96550785506326
C           -1.71516372796097       -0.09902981969471       -0.28521964003634
C           -1.21885127512990        0.80872578596332        0.57787860548397
C            0.22412099599609        0.92019719932588        0.92206350039107
C           -3.14805634445205       -0.12305401161404       -0.58679743677664
O           -3.99484283223107        0.64059124187683       -0.12516795374600
H            3.52500253788467        0.82602345916827       -1.43964311602504
H            4.55832863501797       -0.24209357225920       -0.46404294244346
H            3.24446708867031       -0.90825650919093       -1.45867209566408
H            2.33327810633622        0.25547073361861        2.44358162605276
H            4.06270937746870        0.02683483894956        1.83062862323746
H            1.19452766706369       -1.82624339852886       -0.94107358547642
H            0.44588578604196       -1.73822071752409        0.65692675360716
H           -0.74328672816587       -0.86852452451402       -2.02866291102763
H           -1.35359270471611       -2.09923952540406       -0.93851391827084
H           -1.90538851088817        1.50231886484523        1.05993809202821
H            0.50550642079401        1.97905014958879        0.98547688928446
H            0.35170363215049        0.52464908188144        1.94107038057792
H           -3.46055382070878       -0.91542810267094       -1.29721502882603
