35
 xtb: 6.7.1 (edcfbbe)
C           -0.38664187505162       -2.56500777732784       -0.04699894937031
C            0.45380804809954       -1.32719218313470        0.00790142221315
C            1.83788961270315       -1.34229741101373       -0.24292900956527
N            2.59161877534271       -0.23862524460531       -0.19984551151115
C            1.97237634924496        0.92620166105854        0.08492333822854
N            0.65423298872935        1.05020477793221        0.35546514105024
C           -0.04410375108343       -0.06600747147049        0.30001141963001
O           -1.38745626403627        0.07913914203633        0.65842769921545
C           -2.29829856118695        0.02356069279367       -0.38129004948004
O           -1.94193947205626       -0.04115790065194       -1.55433348175352
N           -3.56674929314072        0.09968768794584        0.06569669220005
C           -4.63767674207701       -0.16378930026135       -0.89766038661686
C           -3.89661427684300       -0.11912227262915        1.47831919222200
N            2.72282118999800        2.07284289621358        0.06216121154167
C            4.18035744724043        1.95030492947210        0.12398193869925
C            2.17979177179867        3.27192465440862        0.70294793140820
C            2.52468327489503       -2.63008732160295       -0.56445824955587
H            0.06409228573538       -3.37155338658407        0.54024355852921
H           -1.39056995945667       -2.38778518218448        0.34408354141638
H           -0.48554134708493       -2.93028847354991       -1.07601242824559
H           -5.55084650440848        0.31961522973831       -0.54448952560894
H           -4.82264150785636       -1.24039622921130       -1.00273392728270
H           -4.37529844260688        0.25001335096471       -1.87127265299587
H           -3.24005599522475        0.46305075829845        2.12459101390032
H           -3.82311697936873       -1.17992748833178        1.74790317111192
H           -4.92311126801398        0.21426441753399        1.64113906169956
H            4.54652445451320        1.27792679609442       -0.65156206052121
H            4.51900171538530        1.57765694275980        1.10131826339420
H            4.61417407731428        2.93809408910067       -0.04228962454546
H            2.13372430005957        3.16566686189511        1.79638503556487
H            1.17915554113773        3.49118057518033        0.33093596679238
H            2.82974170309986        4.11483973397708        0.46105353659498
H            3.58353311614333       -2.46451190016872       -0.76518901291346
H            2.42585653740063       -3.33684925889709        0.26746841082057
H            2.06235507178847       -3.10598605825697       -1.43635829884040
