 xtb: 6.7.1 (edcfbbe)
          04072507453D

 21 20  0     0  0            999 V2000
    1.7466    1.2266    0.2145 C   0  0  0  0  0  0  0  0  0  0  0  0
    1.3265   -0.1164   -0.3812 C   0  0  0  0  0  0  0  0  0  0  0  0
    1.7227   -1.2761    0.5401 C   0  0  0  0  0  0  0  0  0  0  0  0
   -0.0364   -0.1828   -0.7982 O   0  0  0  0  0  0  0  0  0  0  0  0
   -1.0752    0.3801   -0.0008 C   0  0  0  0  0  0  0  0  0  0  0  0
   -2.3088    0.3856   -0.9037 C   0  0  0  0  0  0  0  0  0  0  0  0
   -1.3605   -0.3999    1.2850 C   0  0  0  0  0  0  0  0  0  0  0  0
    1.4417    2.0438   -0.4352 H   0  0  0  0  0  0  0  0  0  0  0  0
    1.3119    1.3729    1.2006 H   0  0  0  0  0  0  0  0  0  0  0  0
    2.8282    1.2427    0.3096 H   0  0  0  0  0  0  0  0  0  0  0  0
    1.8533   -0.2531   -1.3361 H   0  0  0  0  0  0  0  0  0  0  0  0
    2.8052   -1.3680    0.5550 H   0  0  0  0  0  0  0  0  0  0  0  0
    1.2970   -2.2027    0.1638 H   0  0  0  0  0  0  0  0  0  0  0  0
    1.3751   -1.1168    1.5563 H   0  0  0  0  0  0  0  0  0  0  0  0
   -0.8207    1.4192    0.2550 H   0  0  0  0  0  0  0  0  0  0  0  0
   -2.5905   -0.6362   -1.1416 H   0  0  0  0  0  0  0  0  0  0  0  0
   -3.1355    0.8826   -0.4060 H   0  0  0  0  0  0  0  0  0  0  0  0
   -2.0824    0.9046   -1.8308 H   0  0  0  0  0  0  0  0  0  0  0  0
   -0.5763   -0.2541    2.0222 H   0  0  0  0  0  0  0  0  0  0  0  0
   -1.4432   -1.4605    1.0616 H   0  0  0  0  0  0  0  0  0  0  0  0
   -2.2981   -0.0548    1.7117 H   0  0  0  0  0  0  0  0  0  0  0  0
  1  2  1  0  0  0  0
  2  3  1  0  0  0  0
  2  4  1  0  0  0  0
  4  5  1  0  0  0  0
  5  6  1  0  0  0  0
  5  7  1  0  0  0  0
  1  8  1  0  0  0  0
  1  9  1  0  0  0  0
  1 10  1  0  0  0  0
  2 11  1  0  0  0  0
  3 12  1  0  0  0  0
  3 13  1  0  0  0  0
  3 14  1  0  0  0  0
  5 15  1  0  0  0  0
  6 16  1  0  0  0  0
  6 17  1  0  0  0  0
  6 18  1  0  0  0  0
  7 19  1  0  0  0  0
  7 20  1  0  0  0  0
  7 21  1  0  0  0  0
M  END
