  17
 
 C          2.1664734752       -0.6859977518        0.5781471495
 O          1.4647526639        0.4722964020        0.1591032453
 P          0.0620861643        0.2451037919       -0.5771909522
 O         -0.0056706897       -0.8200079513       -1.5684365939
 O         -0.9329971943        0.0406914060        0.6841241058
 C         -2.0862075553       -0.7624340407        0.5071845401
 O         -0.2461528105        1.6901523209       -1.1505726592
 C         -0.1933364354        2.8213328386       -0.2933073685
 H          1.7792916394       -1.0369770439        1.5362221027
 H          3.2128527535       -0.4011899859        0.6818724505
 H          2.0648876060       -1.4782439741       -0.1654914451
 H         -2.2228845648       -1.3450196677        1.4183270709
 H         -1.9528913191       -1.4276394937       -0.3469783361
 H         -2.9589410533       -0.1288135423        0.3401968148
 H         -0.6383524784        3.6467684154       -0.8477683668
 H          0.8403675980        3.0545623594       -0.0389363332
 H         -0.7551712608        2.6369002592        0.6231781999
          17
        -29.92826000
 C          1.0170312213        2.2317629884       -0.5236033132
 O          0.4607418736        0.9734066114       -0.8608102427
 P         -0.0492275108        0.0173461948        0.3430989527
 O         -0.4630081198        0.7354361052        1.5408253596
 O         -1.1544212170       -0.8633554503       -0.4061288345
 C         -2.4400949778       -0.2861167404       -0.5617999267
 O          1.1068234296       -1.0399114779        0.5876770750
 C          1.5894004614       -1.8257760227       -0.4925791226
 H          2.1066203262        2.1668462606       -0.5064803000
 H          0.6581352848        2.5500786763        0.4561505630
 H          0.7024270872        2.9429209647       -1.2877269736
 H         -2.4506394728        0.3889102366       -1.4194029487
 H         -2.7166116509        0.2669954811        0.3373565550
 H         -3.1368547174       -1.1073352367       -0.7264494487
 H          0.8712883479       -2.6075356114       -0.7400762045
 H          2.5255303548       -2.2699672024       -0.1555455563
 H          1.7622450907       -1.2061664912       -1.3734574407
