 17

C      1.002000    -0.285000    -0.328000
O      1.080000    -0.139000    -1.736000
P      2.448000    -0.583000    -2.483000
O      2.815000    -2.029000    -2.308000
O      2.185000    -0.134000    -4.017000
C      3.202000    -0.377000    -4.975000
O      3.562000     0.461000    -1.941000
C      3.402000     1.852000    -2.160000
H      0.024000     0.056000     0.021000
H      1.794000     0.301000     0.145000
H      1.130000    -1.340000    -0.073000
H      2.873000    -0.018000    -5.953000
H      3.413000    -1.448000    -5.018000
H      4.105000     0.160000    -4.676000
H      4.248000     2.389000    -1.726000
H      2.468000     2.187000    -1.703000
H      3.367000     2.039000    -3.236000
