14
 xtb: 6.7.1 (edcfbbe)
C           -1.33491201805980       -0.36234225127650       -0.46888986310338
C           -0.01448190978048       -0.06004394821651        0.21445204417461
C            1.13656419221794       -0.68948421824888       -0.54659976781767
O            2.39576144663854       -0.51122956934306        0.11594675933585
O            0.22151276303458        1.35686435413393        0.27348503405205
O           -2.37503250131791        0.25542404421593        0.30843022270345
H           -1.48240258883764       -1.45003962309348       -0.51807974725632
H           -1.32452693014131        0.04285810776244       -1.49040985902472
H           -0.03900791371663       -0.47348704648209        1.23643393093818
H            1.23633555116632       -0.20949785100574       -1.52571503107392
H            0.92431894159184       -1.75564387888581       -0.70177053065087
H            2.35766585341156       -1.00096976329267        0.94765964772448
H           -0.52653465196402        1.74755133328226        0.74431548639888
H           -3.19305492944090        0.19630441552589       -0.20025959289129
