17
 xtb: 6.7.1 (edcfbbe)
C           -2.44857542834092        0.10329747455130        1.01025262634746
C           -1.78149232799165        0.54286942372244       -0.29908137967498
C           -0.42879074380831       -0.09692046039995       -0.42854971039028
O           -0.25108197693619       -1.29617361152098       -0.57817744290185
O            0.57300149352713        0.79763133275489       -0.33484557732304
C            1.93973943865446        0.27365600193400       -0.36813608294192
C            2.35768293156416       -0.22049618670474        0.99752164967120
H           -2.56846896789860       -0.98320327434138        1.04133568410891
H           -1.85189816656041        0.41181547889588        1.87438431909502
H           -3.43742061711006        0.56129643991055        1.09548381642368
H           -1.68753289398360        1.62981575197888       -0.34074899265717
H           -2.38218330885216        0.21057304827654       -1.15226545120647
H            1.99866160079833       -0.50989020376885       -1.12747082608885
H            2.54015886597380        1.12809150995202       -0.68572800829403
H            1.73930328350442       -1.06090523277859        1.32444554690193
H            3.39817333868668       -0.55757828520621        0.95212375931753
H            2.28917027985827        0.58144981026233        1.73840223523601
