  29
 
 C         -2.7410690550        1.3377948293       -1.9972688706
 C         -3.3265724841        0.7782697523       -0.7068163850
 C         -2.4313173918        1.0619931916        0.5089780986
 H         -2.2771997720        2.1418984647        0.5748039056
 C         -3.0990020433        0.5870863880        1.8012033471
 C         -1.0832538432        0.4120074752        0.3303216857
 C         -0.9452533748       -0.9567336453        0.3177024129
 C          0.3034051712       -1.5563851647        0.1389910250
 C          1.4350705465       -0.7904986322       -0.0354366019
 C          1.3189721496        0.5974479098       -0.0293380642
 C          0.0640590152        1.2254098730        0.1541981429
 O         -0.0919238299        2.5384899292        0.1693982211
 N          2.5168309112        1.3569566221       -0.2171385773
 O          3.5564373500        0.7665401725       -0.3701985474
 O          2.4261614118        2.5821197848       -0.2124618593
 N          0.4036475247       -2.9960033944        0.1355855140
 O          1.5018444532       -3.4798813993       -0.0184826720
 O         -0.6208565267       -3.6245127278        0.2882259703
 H         -3.4267964700        1.1743948837       -2.8246519876
 H         -2.5639507240        2.4067831343       -1.9037958074
 H         -1.7968315319        0.8530260260       -2.2372310955
 H         -4.3015070802        1.2337835529       -0.5264080509
 H         -3.4751809314       -0.2981656491       -0.8089525345
 H         -2.4454119349        0.7572585069        2.6533002725
 H         -4.0220006961        1.1378901518        1.9612923774
 H         -3.3389817188       -0.4716418066        1.7552337727
 H         -1.8031407126       -1.5990810211        0.4450482068
 H          2.4020063610       -1.2516911237       -0.1761286117
 H          0.7850946707        2.9776455097        0.0329647276
          29
        -53.54219404
 C         -2.9556596696        0.6879148615       -2.0298260185
 C         -3.4068032909       -0.0146307858       -0.7551695664
 C         -2.6085686409        0.4442447598        0.4740079580
 H         -2.7186871292        1.5274311441        0.5676912675
 C         -3.1445920794       -0.2101083812        1.7494412945
 C         -1.1425854864        0.1408390739        0.2992735519
 C         -0.6879799256       -1.1540045473        0.2015351488
 C          0.6701812319       -1.4331894292        0.0342308829
 C          1.5952763267       -0.4148813756       -0.0385621086
 C          1.1578416410        0.9038733204        0.0563514494
 C         -0.2136636328        1.2086464589        0.2258922132
 O         -0.6737380447        2.4450519565        0.3200659764
 N          2.1500591650        1.9318841554       -0.0248503945
 O          3.3041187634        1.6111088972       -0.1600419328
 O          1.7731739368        3.0992228512        0.0481535162
 N          1.1044751515       -2.8056365958       -0.0643783633
 O          2.2891274627       -3.0089846475       -0.2033221688
 O          0.2515536596       -3.6639532955       -0.0012364198
 H         -3.5856024340        0.3941891350       -2.8654830071
 H         -3.0201703275        1.7673088179       -1.9137738487
 H         -1.9266271187        0.4295241030       -2.2716355989
 H         -4.4612182024        0.2031091602       -0.5774353807
 H         -3.3063021872       -1.0943425841       -0.8777795211
 H         -2.5599439021        0.1002860886        2.6120705547
 H         -4.1774001189        0.0877115849        1.9096838548
 H         -3.1092195364       -1.2939812353        1.6797388193
 H         -1.3749056230       -1.9850480296        0.2502113965
 H          2.6466735538       -0.6280681836       -0.1681188314
 H          0.0786224776        3.0847487125        0.2493461111
