 29

C     -0.170000     3.059000     2.398000
C      0.034000     1.608000     1.979000
C     -0.989000     0.645000     2.615000
H     -1.988000     0.968000     2.294000
C     -0.790000    -0.777000     2.076000
C     -0.944000     0.641000     4.134000
C      0.238000     0.278000     4.779000
C      0.299000     0.271000     6.172000
C     -0.824000     0.626000     6.921000
C     -2.006000     0.988000     6.276000
C     -2.066000     0.996000     4.882000
O     -3.219000     1.352000     4.244000
N     -3.140000     1.347000     7.056000
O     -3.949000     0.452000     7.397000
O     -3.297000     2.548000     7.380000
N      1.502000    -0.101000     6.829000
O      1.535000    -0.101000     8.083000
O      2.499000    -0.419000     6.137000
H      0.580000     3.697000     1.919000
H     -1.157000     3.428000     2.103000
H     -0.068000     3.173000     3.482000
H      0.006000     1.544000     0.885000
H      1.045000     1.308000     2.283000
H     -1.504000    -1.484000     2.512000
H     -0.922000    -0.799000     0.989000
H      0.220000    -1.143000     2.297000
H      1.112000     0.002000     4.192000
H     -0.776000     0.620000     8.008000
H     -3.904000     1.572000     4.894000
