 xtb: 6.7.1 (edcfbbe)
          04112512243D

 14 13  0     0  0            999 V2000
   -2.7624    0.3105    0.0074 C   0  0  0  0  0  0  0  0  0  0  0  0
   -1.3451    0.0617   -0.4918 C   0  0  0  0  0  0  0  0  0  0  0  0
   -0.3388    0.0780    0.6693 C   0  0  0  0  0  0  0  0  0  0  0  0
    1.0425   -0.1747    0.1354 C   0  0  0  0  0  0  0  0  0  0  0  0
    1.6130   -1.2455    0.1623 O   0  0  0  0  0  0  0  0  0  0  0  0
    1.5800    0.9032   -0.4127 O   0  0  0  0  0  0  0  0  0  0  0  0
   -3.0571   -0.4575    0.7180 H   0  0  0  0  0  0  0  0  0  0  0  0
   -3.4601    0.2954   -0.8255 H   0  0  0  0  0  0  0  0  0  0  0  0
   -2.8292    1.2785    0.4972 H   0  0  0  0  0  0  0  0  0  0  0  0
   -1.2944   -0.9073   -0.9930 H   0  0  0  0  0  0  0  0  0  0  0  0
   -1.0667    0.8321   -1.2130 H   0  0  0  0  0  0  0  0  0  0  0  0
   -0.3582    1.0552    1.1510 H   0  0  0  0  0  0  0  0  0  0  0  0
   -0.5875   -0.7013    1.3889 H   0  0  0  0  0  0  0  0  0  0  0  0
    2.4635    0.7356   -0.7941 H   0  0  0  0  0  0  0  0  0  0  0  0
  1  2  1  0  0  0  0
  2  3  1  0  0  0  0
  3  4  1  0  0  0  0
  4  5  2  0  0  0  0
  4  6  1  0  0  0  0
  1  7  1  0  0  0  0
  1  8  1  0  0  0  0
  1  9  1  0  0  0  0
  2 10  1  0  0  0  0
  2 11  1  0  0  0  0
  3 12  1  0  0  0  0
  3 13  1  0  0  0  0
  6 14  1  0  0  0  0
M  END
