 xtb: 6.7.1 (edcfbbe)
          04112511533D

 26 27  0     0  0            999 V2000
    0.5294    1.6494    0.6213 C   0  0  0  0  0  0  0  0  0  0  0  0
    1.8764    1.9284    0.6868 C   0  0  0  0  0  0  0  0  0  0  0  0
    2.8356    0.9663    0.3642 C   0  0  0  0  0  0  0  0  0  0  0  0
    2.3929   -0.3105   -0.0285 C   0  0  0  0  0  0  0  0  0  0  0  0
    1.0259   -0.5774   -0.0810 C   0  0  0  0  0  0  0  0  0  0  0  0
    0.0803    0.3847    0.2348 C   0  0  0  0  0  0  0  0  0  0  0  0
   -1.3538    0.0637    0.1702 C   0  0  0  0  0  0  0  0  0  0  0  0
   -1.8341   -1.1545    0.6518 C   0  0  0  0  0  0  0  0  0  0  0  0
   -3.1770   -1.4776    0.6008 C   0  0  0  0  0  0  0  0  0  0  0  0
   -4.0570   -0.5643    0.0520 C   0  0  0  0  0  0  0  0  0  0  0  0
   -3.6375    0.6537   -0.4465 C   0  0  0  0  0  0  0  0  0  0  0  0
   -2.2885    0.9418   -0.3738 C   0  0  0  0  0  0  0  0  0  0  0  0
   -1.8796    2.1311   -0.8873 F   0  0  0  0  0  0  0  0  0  0  0  0
   -5.3799   -0.8673   -0.0047 F   0  0  0  0  0  0  0  0  0  0  0  0
    3.3046   -1.4088   -0.3988 C   0  0  0  0  0  0  0  0  0  0  0  0
    2.9107   -2.5197   -0.7175 O   0  0  0  0  0  0  0  0  0  0  0  0
    4.5926   -1.1112   -0.3641 O   0  0  0  0  0  0  0  0  0  0  0  0
    4.1459    1.2370    0.4258 O   0  0  0  0  0  0  0  0  0  0  0  0
   -0.1821    2.4156    0.8861 H   0  0  0  0  0  0  0  0  0  0  0  0
    2.2001    2.9115    0.9940 H   0  0  0  0  0  0  0  0  0  0  0  0
    0.7286   -1.5642   -0.4020 H   0  0  0  0  0  0  0  0  0  0  0  0
   -1.1355   -1.8508    1.0860 H   0  0  0  0  0  0  0  0  0  0  0  0
   -3.5433   -2.4174    0.9785 H   0  0  0  0  0  0  0  0  0  0  0  0
   -4.3310    1.3539   -0.8810 H   0  0  0  0  0  0  0  0  0  0  0  0
    5.1509   -1.8711   -0.6170 H   0  0  0  0  0  0  0  0  0  0  0  0
    4.3047    2.1530    0.7093 H   0  0  0  0  0  0  0  0  0  0  0  0
  1  2  4  0  0  0  0
  2  3  4  0  0  0  0
  3  4  4  0  0  0  0
  4  5  4  0  0  0  0
  1  6  4  0  0  0  0
  5  6  4  0  0  0  0
  6  7  1  0  0  0  0
  7  8  4  0  0  0  0
  8  9  4  0  0  0  0
  9 10  4  0  0  0  0
 10 11  4  0  0  0  0
  7 12  4  0  0  0  0
 11 12  4  0  0  0  0
 12 13  1  0  0  0  0
 10 14  1  0  0  0  0
  4 15  1  0  0  0  0
 15 16  2  0  0  0  0
 15 17  1  0  0  0  0
  3 18  1  0  0  0  0
  1 19  1  0  0  0  0
  2 20  1  0  0  0  0
  5 21  1  0  0  0  0
  8 22  1  0  0  0  0
  9 23  1  0  0  0  0
 11 24  1  0  0  0  0
 17 25  1  0  0  0  0
 18 26  1  0  0  0  0
M  END
