 21

C      1.266000    -2.240000    -2.208000
C      1.931000    -1.013000    -1.603000
C      1.885000    -1.036000    -0.112000
C      2.921000    -1.631000     0.608000
C      2.878000    -1.652000     2.002000
C      1.800000    -1.079000     2.676000
C      0.764000    -0.484000     1.955000
C      0.807000    -0.463000     0.561000
C      1.753000    -1.104000     4.166000
H      1.305000    -2.214000    -3.303000
H      0.215000    -2.288000    -1.907000
H      1.757000    -3.162000    -1.877000
H      1.439000    -0.105000    -1.973000
H      2.973000    -0.952000    -1.940000
H      3.765000    -2.080000     0.092000
H      3.689000    -2.118000     2.555000
H     -0.081000    -0.036000     2.472000
H     -0.005000     0.002000     0.008000
H      2.238000    -0.211000     4.579000
H      0.719000    -1.138000     4.532000
H      2.260000    -1.991000     4.566000
