 xtb: 6.7.1 (edcfbbe)
          04112511083D

 23 22  0     0  0            999 V2000
    1.8203    1.3272    0.0057 C   0  0  0  0  0  0  0  0  0  0  0  0
    0.9917    0.3313    0.8107 C   0  0  0  0  0  0  0  0  0  0  0  0
   -0.0002   -0.5234   -0.0000 C   0  0  0  0  0  0  0  0  0  0  0  0
    0.7581   -1.4247   -0.9819 C   0  0  0  0  0  0  0  0  0  0  0  0
   -0.7592   -1.4244    0.9816 C   0  0  0  0  0  0  0  0  0  0  0  0
   -0.9915    0.3321   -0.8106 C   0  0  0  0  0  0  0  0  0  0  0  0
   -1.8195    1.3284   -0.0055 C   0  0  0  0  0  0  0  0  0  0  0  0
    2.4975    1.8586    0.6712 H   0  0  0  0  0  0  0  0  0  0  0  0
    1.1877    2.0611   -0.4861 H   0  0  0  0  0  0  0  0  0  0  0  0
    2.4178    0.8227   -0.7485 H   0  0  0  0  0  0  0  0  0  0  0  0
    1.6732   -0.3488    1.3282 H   0  0  0  0  0  0  0  0  0  0  0  0
    0.4391    0.8752    1.5793 H   0  0  0  0  0  0  0  0  0  0  0  0
    1.2471   -0.8388   -1.7557 H   0  0  0  0  0  0  0  0  0  0  0  0
    0.0702   -2.1138   -1.4669 H   0  0  0  0  0  0  0  0  0  0  0  0
    1.5139   -2.0073   -0.4600 H   0  0  0  0  0  0  0  0  0  0  0  0
   -1.2477   -0.8383    1.7555 H   0  0  0  0  0  0  0  0  0  0  0  0
   -1.5153   -2.0064    0.4596 H   0  0  0  0  0  0  0  0  0  0  0  0
   -0.0716   -2.1140    1.4665 H   0  0  0  0  0  0  0  0  0  0  0  0
   -0.4386    0.8758   -1.5791 H   0  0  0  0  0  0  0  0  0  0  0  0
   -1.6735   -0.3474   -1.3283 H   0  0  0  0  0  0  0  0  0  0  0  0
   -2.4963    1.8604   -0.6708 H   0  0  0  0  0  0  0  0  0  0  0  0
   -2.4174    0.8241    0.7487 H   0  0  0  0  0  0  0  0  0  0  0  0
   -1.1864    2.0617    0.4866 H   0  0  0  0  0  0  0  0  0  0  0  0
  1  2  1  0  0  0  0
  2  3  1  0  0  0  0
  3  4  1  0  0  0  0
  3  5  1  0  0  0  0
  3  6  1  0  0  0  0
  6  7  1  0  0  0  0
  1  8  1  0  0  0  0
  1  9  1  0  0  0  0
  1 10  1  0  0  0  0
  2 11  1  0  0  0  0
  2 12  1  0  0  0  0
  4 13  1  0  0  0  0
  4 14  1  0  0  0  0
  4 15  1  0  0  0  0
  5 16  1  0  0  0  0
  5 17  1  0  0  0  0
  5 18  1  0  0  0  0
  6 19  1  0  0  0  0
  6 20  1  0  0  0  0
  7 21  1  0  0  0  0
  7 22  1  0  0  0  0
  7 23  1  0  0  0  0
M  END
