21
 xtb: 6.7.1 (edcfbbe)
C           -3.66073366727048        1.18745409484519       -0.81192847705689
C           -3.06616152122935       -0.13889885369466       -0.40536844972205
O           -1.61322485392119       -0.06220564950153       -0.56078410683759
C           -0.83249085297869       -0.30490956237116        0.50507144944557
O           -1.25504852398199       -0.61952874083772        1.60824008468727
C            0.61098806921426       -0.15279365251352        0.19158643935090
C            1.06015829133893        0.26542446514619       -1.06658738818713
C            2.42274829451470        0.39463036247276       -1.30743445078725
C            3.34295007132022        0.10686505602387       -0.30156958900745
C            2.89878364816933       -0.30977523058461        0.95200485123444
C            1.53843925268790       -0.43854866895574        1.19963286150475
H           -3.39305604161459        1.44182434728610       -1.84131562077636
H           -4.75124345902644        1.12393567780336       -0.74643211763028
H           -3.32107598247875        1.98697305651751       -0.14717168963632
H           -3.39057456877415       -0.94948773326965       -1.06351702336717
H           -3.30443711949390       -0.39594932128077        0.62753596545248
H            0.34935796735480        0.49165414956798       -1.85201819106283
H            2.76776070897396        0.72092124428162       -2.28297912816250
H            4.40621207573458        0.20768436536141       -0.49436357487899
H            3.61405967808366       -0.53415976442814        1.73634426848278
H            1.18622062826825       -0.76155152278885        2.17293955834718
