 xtb: 6.7.1 (edcfbbe)
          04112512423D

 17 16  0     0  0            999 V2000
   -2.2250    1.2563    0.2826 C   0  0  0  0  0  0  0  0  0  0  0  0
   -1.8882   -0.1011   -0.3184 C   0  0  0  0  0  0  0  0  0  0  0  0
   -0.4576   -0.5329   -0.1197 C   0  0  0  0  0  0  0  0  0  0  0  0
   -0.0370   -1.6255   -0.4505 O   0  0  0  0  0  0  0  0  0  0  0  0
    0.2909    0.3947    0.4559 O   0  0  0  0  0  0  0  0  0  0  0  0
    1.6804    0.1113    0.6828 C   0  0  0  0  0  0  0  0  0  0  0  0
    2.5189    0.4693   -0.5348 C   0  0  0  0  0  0  0  0  0  0  0  0
   -1.6125    2.0347   -0.1629 H   0  0  0  0  0  0  0  0  0  0  0  0
   -3.2709    1.4859    0.1013 H   0  0  0  0  0  0  0  0  0  0  0  0
   -2.0473    1.2544    1.3544 H   0  0  0  0  0  0  0  0  0  0  0  0
   -2.0680   -0.1013   -1.3961 H   0  0  0  0  0  0  0  0  0  0  0  0
   -2.5184   -0.8856    0.1058 H   0  0  0  0  0  0  0  0  0  0  0  0
    1.9488    0.7247    1.5435 H   0  0  0  0  0  0  0  0  0  0  0  0
    1.7863   -0.9510    0.9236 H   0  0  0  0  0  0  0  0  0  0  0  0
    2.3670    1.5117   -0.8011 H   0  0  0  0  0  0  0  0  0  0  0  0
    3.5677    0.3056   -0.3099 H   0  0  0  0  0  0  0  0  0  0  0  0
    2.2369   -0.1575   -1.3779 H   0  0  0  0  0  0  0  0  0  0  0  0
  1  2  1  0  0  0  0
  2  3  1  0  0  0  0
  3  4  2  0  0  0  0
  3  5  1  0  0  0  0
  5  6  1  0  0  0  0
  6  7  1  0  0  0  0
  1  8  1  0  0  0  0
  1  9  1  0  0  0  0
  1 10  1  0  0  0  0
  2 11  1  0  0  0  0
  2 12  1  0  0  0  0
  6 13  1  0  0  0  0
  6 14  1  0  0  0  0
  7 15  1  0  0  0  0
  7 16  1  0  0  0  0
  7 17  1  0  0  0  0
M  END
