19
CONF4
C 1.4653316721 -2.4425140328 -0.9636658330
O 1.0879366271 -1.7698589319 0.2394294582
C 0.7240352462 -0.4587267849 0.0869080693
C 1.6748928362 0.5631036410 0.0430279619
C 1.2909639177 1.8919429723 -0.0389018429
C -0.0504321130 2.2253772895 -0.0702462800
C -1.0055225648 1.2234221294 -0.0098697886
C -0.6317359990 -0.1149991802 0.0625415278
C -1.6433184744 -1.2193597443 0.1014329102
O -1.7089480206 -2.0925489572 -0.7332921601
O -2.4471564550 -1.1328789172 1.1380865771
Cl -2.6793444182 1.6417748665 -0.0670889871
Cl 3.3532298677 0.1558537745 0.1226327975
H 2.2550721371 -1.9006039812 -1.4875315703
H 0.5953231798 -2.5595575765 -1.6145043718
H 1.8273882466 -3.4160055531 -0.6448490855
H 2.0445165305 2.6612606011 -0.0737677355
H -0.3569834825 3.2557981980 -0.1355706189
H -3.1041367124 -1.8577809307 1.1757547146
19
CONF3
C 1.5814998794 -2.4384178647 0.9113091004
O 1.0306910012 -1.7794097026 -0.2330870723
C 0.6989356162 -0.4661839893 -0.0701501478
C 1.6572704797 0.5481941888 0.0050431450
C 1.2852620598 1.8791803805 0.1044403042
C -0.0514278186 2.2312072342 0.1036242937
C -1.0147936711 1.2425663017 -0.0093778733
C -0.6553535300 -0.1015570315 -0.0802873819
C -1.6941481162 -1.1686757803 -0.2135408341
O -2.5872736166 -1.1366285434 -1.0312143142
O -1.5429866056 -2.1421714270 0.6585439499
Cl -2.6853399089 1.6823640950 -0.0259842485
Cl 3.3402158106 0.1521918982 -0.0814906197
H 1.8350746252 -3.4366522718 0.5658505159
H 0.8318109683 -2.4918264005 1.7034467272
H 2.4747316423 -1.9313241975 1.2773383606
H 2.0470515874 2.6387090519 0.1688653207
H -0.3486524133 3.2633438298 0.1770854432
H -2.2094836502 -2.8512037823 0.5533637214
19
CONF5
C 0.9044844311 -2.6157845764 0.8764501853
O 1.2584194308 -1.6924729772 -0.1487375725
C 0.7786642398 -0.4236127830 -0.0520529343
C 1.6935775910 0.6333876490 -0.0175936254
C 1.2742870226 1.9505134774 0.0571966879
C -0.0761031281 2.2413687401 0.1154300495
C -0.9973812384 1.2080909246 0.0702103574
C -0.5905836907 -0.1207950777 -0.0304818944
C -1.6139072970 -1.2034253665 -0.1750678790
O -2.5328734492 -1.3852066255 0.5936586154
O -1.4135056642 -1.9256321395 -1.2579191717
Cl -2.6869565614 1.5799220325 0.0939855725
Cl 3.3783104991 0.2601791476 -0.0774520223
H 1.1571147284 -3.5976980077 0.4850134709
H -0.1569258628 -2.5728744470 1.1251636429
H 1.4899157278 -2.4109594866 1.7769936838
H 2.0057511243 2.7409467257 0.0828720800
H -0.4178975023 3.2597500813 0.1859578090
H -2.0900502769 -2.6204787608 -1.3909526236
19
CONF1
C 0.7134786239 -2.8249678294 0.0504009283
O 1.4529487314 -1.6202174945 -0.0394856040
C 0.8472127354 -0.4196316054 -0.0178605854
C 1.7209244039 0.6841385826 0.0014817749
C 1.2666329824 1.9846066442 0.0257981466
C -0.0961324101 2.2372093574 0.0314108486
C -0.9660947383 1.1670070734 0.0068913611
C -0.5259964864 -0.1581195841 -0.0166895454
C -1.6167429037 -1.1915525178 -0.0855736550
O -2.0967914037 -1.5881974484 -1.1229340150
O -2.0321324122 -1.5672444575 1.1056844148
Cl -2.6757129907 1.4548675588 -0.0054347803
Cl 3.4178051574 0.3575265885 -0.0069955983
H 0.0388282222 -2.9430216285 -0.7996097899
H 0.1597424984 -2.8704718303 0.9899208246
H 1.4639024663 -3.6123826629 0.0292942655
H 1.9744677272 2.7960151406 0.0415720374
H -0.4730624415 3.2449624136 0.0524645005
H -2.7963424181 -2.1788197930 1.0735569947
19
CONF10
C 1.5017834749 -2.4077250570 0.9940460318
O 1.0949953357 -1.7653293725 -0.2183579577
C 0.7068146585 -0.4549515118 -0.0857806619
C 1.6600421561 0.5577704491 0.0173772991
C 1.2804885160 1.8874184797 0.1087425786
C -0.0592367703 2.2212094209 0.0903957392
C -1.0216258161 1.2273783354 -0.0095281119
C -0.6605573889 -0.1220546455 -0.0946800494
C -1.7107048775 -1.1894478463 -0.1564461401
O -2.8034698454 -1.0519956866 0.3502010979
O -1.4099606251 -2.3086525670 -0.7913780944
Cl -2.6805971077 1.7016312477 -0.0654455626
Cl 3.3419472414 0.1487405576 -0.0189485863
H 0.6440963469 -2.5297093859 1.6602300953
H 2.2820125281 -1.8399339183 1.5004401685
H 1.8847598829 -3.3786363932 0.6932917348
H 2.0340312638 2.6539902781 0.1829721576
H -0.3692579929 3.2505358519 0.1485257943
H -0.4596381316 -2.3657436548 -1.0451050643
19
CONF6
C 1.7683702206 -2.4384797266 0.8084350462
O 0.9685828667 -1.7960196147 -0.1912242838
C 0.6798636646 -0.4808355259 -0.0423635029
C 1.6473620173 0.5278855046 0.0249658178
C 1.2847511194 1.8622795767 0.1066515029
C -0.0476637180 2.2299009609 0.0875510319
C -1.0189419133 1.2494076838 -0.0251234689
C -0.6717908870 -0.0988067668 -0.0716202515
C -1.7189769535 -1.1583662768 -0.1868978189
O -2.6295033873 -1.1186972906 -0.9857310410
O -1.5613253774 -2.1350638051 0.6814288042
Cl -2.6839028656 1.7070414846 -0.0652587941
Cl 3.3342873339 0.1345213369 -0.0640447095
H 2.5180276988 -3.0371409125 0.2938479047
H 1.1102372833 -3.0833208209 1.3935067153
H 2.2516408439 -1.7213109511 1.4677825670
H 2.0536099108 2.6151924651 0.1652882753
H -0.3342424715 3.2658637830 0.1444721326
H -2.2425065661 -2.8313395332 0.5885067793
19
CONF7
C 1.7271744635 -2.4279667471 0.8842122447
O 0.9662677767 -1.8127105327 -0.1566657701
C 0.6878603079 -0.4871069494 -0.0533069652
C 1.6503776446 0.5250258614 0.0214776932
C 1.2838411850 1.8579901396 0.1222640921
C -0.0484530048 2.2230177938 0.1327964559
C -1.0173163281 1.2389370152 0.0325331923
C -0.6660553130 -0.1047704741 -0.0622156787
C -1.7182340932 -1.1624843093 -0.1469771541
O -2.6534352474 -1.2406298175 0.6207582558
O -1.5214573020 -1.9970992844 -1.1425803297
Cl -2.6850292145 1.6897301693 0.0020230456
Cl 3.3405347837 0.1585824915 -0.0853986869
H 2.7570586108 -2.0733935016 0.9099886188
H 1.7095052973 -3.4885572563 0.6469125935
H 1.2529653616 -2.2545042442 1.8528981708
H 2.0521227559 2.6117171689 0.1794467379
H -0.3371759599 3.2574210243 0.2049540329
H -2.1906991473 -2.7101114085 -1.1831575514
19
CONF2
C 2.0509189169 -2.5120987397 0.1957498505
O 0.8116401097 -1.8491762423 -0.0180637070
C 0.6632450871 -0.5146069137 0.0145925374
C 1.6377588112 0.4896468076 0.0489702049
C 1.2799855684 1.8309424558 0.0309690875
C -0.0398088645 2.2270747784 -0.0369061359
C -1.0199862629 1.2503952471 -0.0839484000
C -0.6854255456 -0.0960332814 -0.0427942985
C -1.7555025638 -1.1406103710 -0.0785547037
O -2.6127149118 -1.1963457327 -0.9331363644
O -1.6816308236 -1.9808537077 0.9308884997
Cl -2.6831399314 1.7136077823 -0.1555599460
Cl 3.3503876582 0.1756555444 0.1014573962
H 2.5054062285 -2.2123995402 1.1397679344
H 2.7423707017 -2.3417429779 -0.6298900525
H 1.7847738268 -3.5665173224 0.2362042650
H 2.0606984471 2.5736480262 0.0631149144
H -0.3078852736 3.2687308561 -0.0543649404
H -2.3684555770 -2.6770313072 0.8977168344
