19
CONF7
C 1.5182345925 -2.4292817800 0.9445023033
O 1.1942952245 -1.7529402477 -0.3016572645
C 0.8126724698 -0.4486480387 -0.1371910648
C 1.7398433847 0.5956608255 -0.0925854261
C 1.3229372079 1.9148695230 0.0298800408
C -0.0318045779 2.2124420386 0.1084225614
C -0.9549098575 1.1772927636 0.0646773814
C -0.5505217786 -0.1491742075 -0.0547200203
C -1.5354625375 -1.2766497523 -0.0611073356
O -2.0854557100 -1.6896862909 0.9389940274
O -1.7343241761 -1.7637794984 -1.2922897986
Cl -2.6673504019 1.5484499501 0.1302483366
Cl 3.4440167071 0.2329486483 -0.2230419646
H 2.3480188117 -1.9283200253 1.4517958729
H 1.8084621500 -3.4424179882 0.6657117969
H 0.6397930832 -2.4556229602 1.5972068128
H 2.0526798357 2.7159515298 0.0583730346
H -0.3592353728 3.2416623370 0.1927735435
H -2.3721248999 -2.4997651799 -1.2400108903
19
CONF5
C 1.1879406113 -2.5249829945 1.0183637482
O 0.9830029061 -1.8298996000 -0.2428613133
C 0.6569896994 -0.5081535014 -0.0941615424
C 1.6241262454 0.4882684544 0.0634983337
C 1.2597225777 1.8245946233 0.1673230022
C -0.0800385955 2.1887685717 0.1104197324
C -1.0408345162 1.2014849732 -0.0547872854
C -0.6891621360 -0.1405673683 -0.1553492746
C -1.7172939774 -1.2200706482 -0.2996493972
O -2.3104059892 -1.7100658557 0.6389972480
O -1.8961603068 -1.5723467907 -1.5784056843
Cl -2.7343261496 1.6471633325 -0.1516027442
Cl 3.3143021960 0.0459438763 0.0934397124
H 1.4872335359 -3.5395218516 0.7540126600
H 0.2546516240 -2.5435659730 1.5904532685
H 1.9772864176 -2.0429398901 1.6027569934
H 2.0201898685 2.5878352443 0.2865484424
H -0.3646586579 3.2314164669 0.1840951189
H -2.5682094685 -2.2781325263 -1.6202141645
19
CONF4
C 1.4202410577 -2.4444501906 -0.9328433821
O 1.0273829557 -1.7620605290 0.2897472126
C 0.7055755471 -0.4431899348 0.1123134696
C 1.6692588021 0.5682938043 0.0751668066
C 1.2981763099 1.9015047301 -0.0450538258
C -0.0449252509 2.2484238574 -0.1230901682
C -1.0038615599 1.2468325939 -0.0700508488
C -0.6447803350 -0.0926232425 0.0412662059
C -1.6616927465 -1.1915938853 0.0616181951
O -1.9664212686 -1.8405498900 -0.9173817508
O -2.1853146095 -1.3652971925 1.2831447226
Cl -2.7030055218 1.6687423948 -0.1663734518
Cl 3.3589640158 0.1501434695 0.2238830843
H 2.2788323490 -1.9493586199 -1.3955864490
H 0.5786078272 -2.4694035822 -1.6316737919
H 1.6924170196 -3.4568442186 -0.6331658991
H 2.0564095172 2.6758054643 -0.0706179910
H -0.3352905322 3.2880533579 -0.2147502324
H -2.8494770338 -2.0787377863 1.2440200323
19
CONF3
C 1.5499950476 -2.4461808753 0.8880220390
O 1.0885860354 -1.7605975810 -0.3086104436
C 0.7422574138 -0.4510084453 -0.1114130777
C 1.6854156462 0.5787607727 -0.0411095499
C 1.2861143664 1.9016122203 0.0976703042
C -0.0645338822 2.2218093736 0.1522626634
C -1.0034332916 1.2054494293 0.0506295905
C -0.6173295102 -0.1265187567 -0.0720666295
C -1.6162624834 -1.2264232963 -0.2532534474
O -2.2238509096 -1.4097941835 -1.2876342445
O -1.7540554365 -1.9726820327 0.8491200343
Cl -2.7094365611 1.6031461049 0.1134126944
Cl 3.3865256656 0.2044880392 -0.1826029888
H 1.7785476178 -3.4651349415 0.5744253877
H 0.7586351315 -2.4515197045 1.6428209876
H 2.4492992745 -1.9706762723 1.2888632523
H 2.0286758734 2.6894995677 0.1521239573
H -0.3757913149 3.2536875626 0.2608650350
H -2.3962614669 -2.6842118256 0.6702561650
19
CONF2
C 1.7905565146 -2.4744335410 0.4049924996
O 1.0529822930 -1.7390510495 -0.6155226443
C 0.7507997614 -0.4416277933 -0.3202145985
C 1.7002551232 0.5839141896 -0.2920232765
C 1.3212186325 1.8981981037 -0.0525760601
C -0.0162352162 2.2143434753 0.1507597941
C -0.9640631445 1.2019070887 0.1044840114
C -0.5962158811 -0.1225409291 -0.1167860559
C -1.5992586173 -1.2292963894 -0.1923746007
O -2.3897355429 -1.3606088462 -1.1042305352
O -1.5159805973 -2.0509215566 0.8637665028
Cl -2.6492276424 1.5941574586 0.3862496626
Cl 3.3784247497 0.2108981405 -0.6018690948
H 1.7556472660 -1.9451673861 1.3604015485
H 2.8260770771 -2.6090496429 0.0843849646
H 1.3018546795 -3.4459503700 0.5040223733
H 2.0681641480 2.6835607585 -0.0355947050
H -0.3114185492 3.2394894236 0.3385764501
H -2.1712230564 -2.7655132161 0.7597708701
19
CONF6
C 1.6703149681 -2.4471780603 0.7983491539
O 1.0802671960 -1.7539284984 -0.3387197513
C 0.7374056164 -0.4503279872 -0.1260954548
C 1.6869807745 0.5746726757 -0.0563797033
C 1.2958141188 1.8989974836 0.0840663033
C -0.0536096792 2.2263473693 0.1376780822
C -0.9987755358 1.2155025784 0.0389911382
C -0.6207084547 -0.1199234977 -0.0797963097
C -1.6210249501 -1.2224737333 -0.2201355656
O -2.3089085325 -1.3852428472 -1.2064256246
O -1.6622401950 -2.0012698548 0.8694087346
Cl -2.7008032715 1.6277824905 0.1167168730
Cl 3.3837014112 0.1821437106 -0.1999167967
H 2.4690653005 -3.0812457636 0.4094814849
H 0.8975156713 -3.0582603952 1.2736292578
H 2.0773643071 -1.7391380444 1.5238361132
H 2.0424968869 2.6830564372 0.1373814848
H -0.3590302595 3.2599135192 0.2463472211
H -2.3079288390 -2.7167122909 0.7217271432
