 xtb: 6.7.1 (edcfbbe)
          04112511493D

 21 20  0     0  0            999 V2000
    2.4114    0.6201   -0.6286 C   0  0  0  0  0  0  0  0  0  0  0  0
    1.0763   -0.0811   -0.3658 C   0  0  0  0  0  0  0  0  0  0  0  0
    0.7201   -0.5223   -1.3094 H   0  0  0  0  0  0  0  0  0  0  0  0
    0.0447    0.9303    0.1481 C   0  0  0  0  0  0  0  0  0  0  0  0
   -1.4225    0.4733    0.1783 C   0  0  0  0  0  0  0  0  0  0  0  0
   -1.9144    0.0058   -1.1909 C   0  0  0  0  0  0  0  0  0  0  0  0
   -1.6694   -0.6037    1.2313 C   0  0  0  0  0  0  0  0  0  0  0  0
    1.2312   -1.1105    0.5991 O   0  0  0  0  0  0  0  0  0  0  0  0
    2.2867    1.3961   -1.3777 H   0  0  0  0  0  0  0  0  0  0  0  0
    2.7788    1.0710    0.2904 H   0  0  0  0  0  0  0  0  0  0  0  0
    3.1517   -0.0911   -0.9893 H   0  0  0  0  0  0  0  0  0  0  0  0
    0.3409    1.2142    1.1601 H   0  0  0  0  0  0  0  0  0  0  0  0
    0.1117    1.8158   -0.4866 H   0  0  0  0  0  0  0  0  0  0  0  0
   -2.0083    1.3578    0.4590 H   0  0  0  0  0  0  0  0  0  0  0  0
   -2.9949   -0.1159   -1.1754 H   0  0  0  0  0  0  0  0  0  0  0  0
   -1.4737   -0.9525   -1.4534 H   0  0  0  0  0  0  0  0  0  0  0  0
   -1.6607    0.7315   -1.9603 H   0  0  0  0  0  0  0  0  0  0  0  0
   -1.3921   -0.2413    2.2184 H   0  0  0  0  0  0  0  0  0  0  0  0
   -2.7207   -0.8825    1.2468 H   0  0  0  0  0  0  0  0  0  0  0  0
   -1.0743   -1.4869    1.0186 H   0  0  0  0  0  0  0  0  0  0  0  0
    1.9560   -1.6892    0.3283 H   0  0  0  0  0  0  0  0  0  0  0  0
  1  2  1  0  0  0  0
  2  3  1  0  0  0  0
  2  4  1  0  0  0  0
  4  5  1  0  0  0  0
  5  6  1  0  0  0  0
  5  7  1  0  0  0  0
  2  8  1  0  0  0  0
  1  9  1  0  0  0  0
  1 10  1  0  0  0  0
  1 11  1  0  0  0  0
  4 12  1  0  0  0  0
  4 13  1  0  0  0  0
  5 14  1  0  0  0  0
  6 15  1  0  0  0  0
  6 16  1  0  0  0  0
  6 17  1  0  0  0  0
  7 18  1  0  0  0  0
  7 19  1  0  0  0  0
  7 20  1  0  0  0  0
  8 21  1  0  0  0  0
M  END
