 xtb: 6.7.1 (edcfbbe)
          04112512013D

 22 22  0     0  0            999 V2000
    3.7810    0.0285   -1.6810 C   0  0  0  0  0  0  0  0  0  0  0  0
    3.4296    0.8156   -0.4137 C   0  0  0  0  0  0  0  0  0  0  0  0
    3.3001   -0.1691    0.7227 C   0  0  0  0  0  0  0  0  0  0  0  0
    4.2794   -0.6760    1.2574 O   0  0  0  0  0  0  0  0  0  0  0  0
    2.0592   -0.5793    1.0868 N   0  0  0  0  0  0  0  0  0  0  0  0
    0.8005   -0.1070    0.6912 C   0  0  0  0  0  0  0  0  0  0  0  0
    0.4742    1.2472    0.7399 C   0  0  0  0  0  0  0  0  0  0  0  0
   -0.7840    1.6745    0.3605 C   0  0  0  0  0  0  0  0  0  0  0  0
   -1.7377    0.7583   -0.0559 C   0  0  0  0  0  0  0  0  0  0  0  0
   -1.4263   -0.5967   -0.0782 C   0  0  0  0  0  0  0  0  0  0  0  0
   -0.1660   -1.0286    0.2944 C   0  0  0  0  0  0  0  0  0  0  0  0
   -2.6149   -1.7569   -0.5738 Cl  0  0  0  0  0  0  0  0  0  0  0  0
   -3.3153    1.3004   -0.5264 Cl  0  0  0  0  0  0  0  0  0  0  0  0
    3.9636    0.7137   -2.5035 H   0  0  0  0  0  0  0  0  0  0  0  0
    2.9641   -0.6353   -1.9540 H   0  0  0  0  0  0  0  0  0  0  0  0
    4.6750   -0.5686   -1.5163 H   0  0  0  0  0  0  0  0  0  0  0  0
    2.5118    1.3715   -0.5773 H   0  0  0  0  0  0  0  0  0  0  0  0
    4.2440    1.5010   -0.1785 H   0  0  0  0  0  0  0  0  0  0  0  0
    2.0567   -1.3976    1.6862 H   0  0  0  0  0  0  0  0  0  0  0  0
    1.1938    1.9637    1.1007 H   0  0  0  0  0  0  0  0  0  0  0  0
   -1.0391    2.7204    0.3969 H   0  0  0  0  0  0  0  0  0  0  0  0
    0.0617   -2.0817    0.2703 H   0  0  0  0  0  0  0  0  0  0  0  0
  1  2  1  0  0  0  0
  2  3  1  0  0  0  0
  3  4  2  0  0  0  0
  3  5  4  0  0  0  0
  5  6  1  0  0  0  0
  6  7  4  0  0  0  0
  7  8  4  0  0  0  0
  8  9  4  0  0  0  0
  9 10  4  0  0  0  0
  6 11  4  0  0  0  0
 10 11  4  0  0  0  0
 10 12  1  0  0  0  0
  9 13  1  0  0  0  0
  1 14  1  0  0  0  0
  1 15  1  0  0  0  0
  1 16  1  0  0  0  0
  2 17  1  0  0  0  0
  2 18  1  0  0  0  0
  5 19  1  0  0  0  0
  7 20  1  0  0  0  0
  8 21  1  0  0  0  0
 11 22  1  0  0  0  0
M  END
