 xtb: 6.7.1 (edcfbbe)
          04112511363D

 14 13  0     0  0            999 V2000
   -1.2445    0.2406   -0.2564 C   0  0  0  0  0  0  0  0  0  0  0  0
    0.1269    0.6666    0.2922 C   0  0  0  0  0  0  0  0  0  0  0  0
    1.2507   -0.2087   -0.2974 C   0  0  0  0  0  0  0  0  0  0  0  0
    1.1259   -1.5676    0.0566 O   0  0  0  0  0  0  0  0  0  0  0  0
    0.3053    2.0209   -0.0553 O   0  0  0  0  0  0  0  0  0  0  0  0
   -1.6445   -1.0277    0.1945 O   0  0  0  0  0  0  0  0  0  0  0  0
   -1.2139    0.2811   -1.3536 H   0  0  0  0  0  0  0  0  0  0  0  0
   -1.9986    0.9501    0.0922 H   0  0  0  0  0  0  0  0  0  0  0  0
    0.1056    0.5469    1.3874 H   0  0  0  0  0  0  0  0  0  0  0  0
    2.2264    0.1859    0.0122 H   0  0  0  0  0  0  0  0  0  0  0  0
    1.1961   -0.1704   -1.3886 H   0  0  0  0  0  0  0  0  0  0  0  0
    1.3350   -1.6779    0.9949 H   0  0  0  0  0  0  0  0  0  0  0  0
    1.1273    2.3547    0.3319 H   0  0  0  0  0  0  0  0  0  0  0  0
   -0.9502   -1.6653   -0.0468 H   0  0  0  0  0  0  0  0  0  0  0  0
  1  2  1  0  0  0  0
  2  3  1  0  0  0  0
  3  4  1  0  0  0  0
  2  5  1  0  0  0  0
  1  6  1  0  0  0  0
  1  7  1  0  0  0  0
  1  8  1  0  0  0  0
  2  9  1  0  0  0  0
  3 10  1  0  0  0  0
  3 11  1  0  0  0  0
  4 12  1  0  0  0  0
  5 13  1  0  0  0  0
  6 14  1  0  0  0  0
M  END
