  24
 
 C         -3.1772901656        0.3093682853       -0.5563373985
 O         -2.0207770866        0.5218314107        0.2395324731
 C         -1.0316462619       -0.3740562212        0.0941568830
 O         -1.1082552677       -1.3127598042       -0.6531080327
 C          0.1276651529       -0.0474453187        1.0172593373
 C          0.6775397791        1.3552164404        0.7248549548
 C          1.3851086070        1.3945288283       -0.6259593000
 C          2.5181370537        0.3739809829       -0.6596754732
 C          1.9699909729       -1.0274220527       -0.4133168382
 C          1.2360806090       -1.0979966775        0.9234343215
 H         -3.8653863178        1.1154443397       -0.3155423764
 H         -3.6243053084       -0.6595385007       -0.3239498331
 H         -2.9184551414        0.3291468511       -1.6170250093
 H         -0.2919902422       -0.0476864466        2.0306155843
 H         -0.1391228838        2.0784175275        0.7480569655
 H          1.3886525296        1.6194822940        1.5110610651
 H          0.6704524879        1.1667354342       -1.4202114971
 H          1.7776143870        2.3982121742       -0.8043702858
 H          3.0236642764        0.4101901372       -1.6266864721
 H          3.2517289509        0.6221209903        0.1118063002
 H          1.2782360370       -1.2950370129       -1.2123129259
 H          2.7854634779       -1.7536550201       -0.4168001717
 H          0.8027217399       -2.0916901900        1.0479696078
 H          1.9442611011       -0.9283524713        1.7378523453
          24
        -32.43691443
 C         -3.5722845563        0.2011767821       -0.3369663617
 O         -2.2082114524        0.2647956000       -0.7311680971
 C         -1.3096497118       -0.1357259898        0.1784870669
 O         -1.6100198639       -0.5383985865        1.2714592135
 C          0.1026418810        0.0098384514       -0.3429984919
 C          0.8915328445       -1.2760248980       -0.0829779925
 C          2.3432686524       -1.1153267959       -0.5209234835
 C          2.9957157154        0.0580195338        0.2027829644
 C          2.2171465481        1.3419202826       -0.0645188161
 C          0.7664835288        1.1893627056        0.3804152010
 H         -4.1532691050        0.5402325526       -1.1905519265
 H         -3.7465191732        0.8452911950        0.5272121917
 H         -3.8410479114       -0.8228350102       -0.0702695663
 H          0.0552768719        0.2174905723       -1.4155822813
 H          0.8456255426       -1.5010258936        0.9841943678
 H          0.4283162553       -2.1059186761       -0.6212618999
 H          2.8921462250       -2.0353156699       -0.3110794598
 H          2.3800631915       -0.9419940087       -1.5991563614
 H          3.0078769934       -0.1406890816        1.2765118807
 H          4.0293945189        0.1730861427       -0.1296658026
 H          2.6765896785        2.1760824596        0.4693566611
 H          2.2474693075        1.5697225836       -1.1325895132
 H          0.7270941033        1.0057907475        1.4561718176
 H          0.2120390594        2.1070918308        0.1717500473
