21
 xtb: 6.7.1 (edcfbbe)
C           -1.85827677806444        1.26049640938671        1.16989585519578
C           -2.02156924982827        0.98625696376112       -0.28471675298020
O           -3.06950326102962        0.98554601973071       -0.89133862495224
O           -0.87925059308686        0.76886481442066       -1.02614878565077
C            0.35794104853755        0.62377094934325       -0.39531414744650
C            1.18915247210908        1.73137181323435       -0.35082101405422
C            2.46550461641447        1.60800363554166        0.18656117316712
C            2.90854663464751        0.37600641646136        0.66196234634917
C            2.07728099106945       -0.73254084614989        0.59528346203072
C            0.78194804503053       -0.63072790721378        0.06800935890349
C           -0.11314665085314       -1.80846911934593        0.03336921472641
O           -1.32886670825382       -1.76775724874111       -0.06711147281725
O            0.56413117920136       -2.97236960866978        0.14043236520650
H           -1.34688846493340        0.43249484629659        1.66872783014678
H           -2.84170778792131        1.41203883088529        1.61349149147367
H           -1.24504463204265        2.15743274273348        1.30658688344184
H            0.82660510481459        2.67764244667944       -0.73744990385949
H            3.11415622967346        2.47663397602790        0.22972234698177
H            3.90372384103179        0.27807902708759        1.08166669344702
H            2.42264856000205       -1.68958644937106        0.96685435437570
H           -0.08528282384009       -3.69668059768812        0.15014016842956
