 xtb: 6.7.1 (edcfbbe)
          04112511023D

 15 14  0     0  0            999 V2000
   -2.0354    0.6274   -0.1804 C   0  0  0  0  0  0  0  0  0  0  0  0
   -1.3106   -0.5569    0.4477 C   0  0  0  0  0  0  0  0  0  0  0  0
    0.0815   -0.7466   -0.1449 C   0  0  0  0  0  0  0  0  0  0  0  0
    0.8953    0.3523    0.2245 O   0  0  0  0  0  0  0  0  0  0  0  0
    2.2009    0.2738   -0.2969 C   0  0  0  0  0  0  0  0  0  0  0  0
   -1.4439    1.5299   -0.0511 H   0  0  0  0  0  0  0  0  0  0  0  0
   -2.1866    0.4608   -1.2444 H   0  0  0  0  0  0  0  0  0  0  0  0
   -3.0039    0.7722    0.2901 H   0  0  0  0  0  0  0  0  0  0  0  0
   -1.8802   -1.4734    0.2900 H   0  0  0  0  0  0  0  0  0  0  0  0
   -1.2040   -0.3936    1.5209 H   0  0  0  0  0  0  0  0  0  0  0  0
    0.5333   -1.6781    0.2302 H   0  0  0  0  0  0  0  0  0  0  0  0
    0.0251   -0.8111   -1.2424 H   0  0  0  0  0  0  0  0  0  0  0  0
    2.7247    1.1598    0.0531 H   0  0  0  0  0  0  0  0  0  0  0  0
    2.1858    0.2603   -1.3930 H   0  0  0  0  0  0  0  0  0  0  0  0
    2.7134   -0.6262    0.0623 H   0  0  0  0  0  0  0  0  0  0  0  0
  1  2  1  0  0  0  0
  2  3  1  0  0  0  0
  3  4  1  0  0  0  0
  4  5  1  0  0  0  0
  1  6  1  0  0  0  0
  1  7  1  0  0  0  0
  1  8  1  0  0  0  0
  2  9  1  0  0  0  0
  2 10  1  0  0  0  0
  3 11  1  0  0  0  0
  3 12  1  0  0  0  0
  5 13  1  0  0  0  0
  5 14  1  0  0  0  0
  5 15  1  0  0  0  0
M  END
