 xtb: 6.7.1 (edcfbbe)
          04112511583D

 18 17  0     0  0            999 V2000
   -1.6559    1.2058    0.7073 C   0  0  0  0  0  0  0  0  0  0  0  0
   -1.3875    0.0376   -0.2323 C   0  0  0  0  0  0  0  0  0  0  0  0
   -0.0089   -0.6086   -0.0409 C   0  0  0  0  0  0  0  0  0  0  0  0
    1.1603    0.3313   -0.3939 C   0  0  0  0  0  0  0  0  0  0  0  0
    1.8153    0.9666    0.8276 C   0  0  0  0  0  0  0  0  0  0  0  0
    0.0645   -1.8159   -0.7877 O   0  0  0  0  0  0  0  0  0  0  0  0
   -0.9905    2.0376    0.4944 H   0  0  0  0  0  0  0  0  0  0  0  0
   -2.6799    1.5500    0.5849 H   0  0  0  0  0  0  0  0  0  0  0  0
   -1.5169    0.9020    1.7421 H   0  0  0  0  0  0  0  0  0  0  0  0
   -2.1386   -0.7390   -0.0675 H   0  0  0  0  0  0  0  0  0  0  0  0
   -1.4781    0.3752   -1.2684 H   0  0  0  0  0  0  0  0  0  0  0  0
    0.0936   -0.9386    0.9992 H   0  0  0  0  0  0  0  0  0  0  0  0
    1.9133   -0.2620   -0.9182 H   0  0  0  0  0  0  0  0  0  0  0  0
    0.8138    1.1110   -1.0753 H   0  0  0  0  0  0  0  0  0  0  0  0
    1.1035    1.5624    1.3913 H   0  0  0  0  0  0  0  0  0  0  0  0
    2.2138    0.1970    1.4846 H   0  0  0  0  0  0  0  0  0  0  0  0
    2.6347    1.6107    0.5176 H   0  0  0  0  0  0  0  0  0  0  0  0
   -0.0779   -1.6125   -1.7226 H   0  0  0  0  0  0  0  0  0  0  0  0
  1  2  1  0  0  0  0
  2  3  1  0  0  0  0
  3  4  1  0  0  0  0
  4  5  1  0  0  0  0
  3  6  1  0  0  0  0
  1  7  1  0  0  0  0
  1  8  1  0  0  0  0
  1  9  1  0  0  0  0
  2 10  1  0  0  0  0
  2 11  1  0  0  0  0
  3 12  1  0  0  0  0
  4 13  1  0  0  0  0
  4 14  1  0  0  0  0
  5 15  1  0  0  0  0
  5 16  1  0  0  0  0
  5 17  1  0  0  0  0
  6 18  1  0  0  0  0
M  END
