15
 xtb: 6.7.1 (edcfbbe)
C            2.61364365554667       -0.81324411567484       -0.13125564578472
C            1.99201358086219        0.58192968397221       -0.12784723579295
C            0.55105643868421        0.61654149918908        0.39302346591277
C           -0.39692204495070       -0.20995962663245       -0.46699264041332
S           -2.12956886677566        0.01015644279502        0.15571962640665
H            3.67087101721678       -0.76866461922302       -0.41160665746659
H            2.11417022643067       -1.47957037226004       -0.84165007681781
H            2.54840927315158       -1.27218039602054        0.86206277535968
H            2.01938461676657        1.00175777443487       -1.14129590646130
H            2.59644751023714        1.24568492602170        0.50120191085449
H            0.20561497245359        1.65748474452354        0.41693568954392
H            0.52696636834839        0.24504575363050        1.42547083852884
H           -0.35379806393876        0.11770705072445       -1.51027461438412
H           -0.15132026004609       -1.27319335279682       -0.41879409245168
H           -2.71728492107330       -0.86635165042590       -0.67907074451298
