 23

C     -2.914000    -1.406000     0.015000
C     -1.407000    -1.554000     0.174000
C     -0.721000    -0.185000     0.252000
C      0.822000    -0.212000     0.414000
C      1.494000    -0.934000    -0.765000
C      1.394000     1.210000     0.531000
C      1.154000    -0.980000     1.710000
H     -3.401000    -2.385000    -0.040000
H     -3.333000    -0.866000     0.870000
H     -3.160000    -0.847000    -0.893000
H     -1.208000    -2.134000     1.081000
H     -1.023000    -2.128000    -0.675000
H     -1.157000     0.375000     1.090000
H     -0.973000     0.381000    -0.655000
H      2.583000    -0.952000    -0.649000
H      1.147000    -1.968000    -0.860000
H      1.270000    -0.431000    -1.713000
H      2.484000     1.188000     0.645000
H      0.980000     1.732000     1.400000
H      1.177000     1.809000    -0.359000
H      2.237000    -1.029000     1.874000
H      0.708000    -0.495000     2.585000
H      0.775000    -2.007000     1.669000
