  23
 
 C         -2.9140000000       -1.4060000000        0.0150000000
 C         -1.4070000000       -1.5540000000        0.1740000000
 C         -0.7210000000       -0.1850000000        0.2520000000
 C          0.8220000000       -0.2120000000        0.4140000000
 C          1.4940000000       -0.9340000000       -0.7650000000
 C          1.3940000000        1.2100000000        0.5310000000
 C          1.1540000000       -0.9800000000        1.7100000000
 H         -3.4010000000       -2.3850000000       -0.0400000000
 H         -3.3330000000       -0.8660000000        0.8700000000
 H         -3.1600000000       -0.8470000000       -0.8930000000
 H         -1.2080000000       -2.1340000000        1.0810000000
 H         -1.0230000000       -2.1280000000       -0.6750000000
 H         -1.1570000000        0.3750000000        1.0900000000
 H         -0.9730000000        0.3810000000       -0.6550000000
 H          2.5830000000       -0.9520000000       -0.6490000000
 H          1.1470000000       -1.9680000000       -0.8600000000
 H          1.2700000000       -0.4310000000       -1.7130000000
 H          2.4840000000        1.1880000000        0.6450000000
 H          0.9800000000        1.7320000000        1.4000000000
 H          1.1770000000        1.8090000000       -0.3590000000
 H          2.2370000000       -1.0290000000        1.8740000000
 H          0.7080000000       -0.4950000000        2.5850000000
 H          0.7750000000       -2.0070000000        1.6690000000
