 xtb: 6.7.1 (edcfbbe)
          04112511123D

 15 14  0     0  0            999 V2000
   -1.9201    0.2611   -0.5942 C   0  0  0  0  0  0  0  0  0  0  0  0
   -1.1006    0.2437    0.6906 C   0  0  0  0  0  0  0  0  0  0  0  0
    0.0694   -0.7404    0.5979 C   0  0  0  0  0  0  0  0  0  0  0  0
    0.9885   -0.4591   -0.4428 O   0  0  0  0  0  0  0  0  0  0  0  0
    1.8256    0.6529   -0.2062 C   0  0  0  0  0  0  0  0  0  0  0  0
   -2.7036    1.0121   -0.5384 H   0  0  0  0  0  0  0  0  0  0  0  0
   -1.2777    0.4861   -1.4426 H   0  0  0  0  0  0  0  0  0  0  0  0
   -2.3785   -0.7101   -0.7638 H   0  0  0  0  0  0  0  0  0  0  0  0
   -1.7259   -0.0589    1.5314 H   0  0  0  0  0  0  0  0  0  0  0  0
   -0.7205    1.2451    0.9004 H   0  0  0  0  0  0  0  0  0  0  0  0
    0.6035   -0.7770    1.5588 H   0  0  0  0  0  0  0  0  0  0  0  0
   -0.3071   -1.7394    0.3642 H   0  0  0  0  0  0  0  0  0  0  0  0
    2.5520    0.6579   -1.0156 H   0  0  0  0  0  0  0  0  0  0  0  0
    2.3436    0.5521    0.7540 H   0  0  0  0  0  0  0  0  0  0  0  0
    1.2663    1.5930   -0.2159 H   0  0  0  0  0  0  0  0  0  0  0  0
  1  2  1  0  0  0  0
  2  3  1  0  0  0  0
  3  4  1  0  0  0  0
  4  5  1  0  0  0  0
  1  6  1  0  0  0  0
  1  7  1  0  0  0  0
  1  8  1  0  0  0  0
  2  9  1  0  0  0  0
  2 10  1  0  0  0  0
  3 11  1  0  0  0  0
  3 12  1  0  0  0  0
  5 13  1  0  0  0  0
  5 14  1  0  0  0  0
  5 15  1  0  0  0  0
M  END
