  13
 
 C         -1.9310936777       -1.2104278371        0.0002269769
 C         -0.5512096191       -1.2103301487        0.0001208119
 C          0.1286327757       -0.0032117170        0.0001042675
 C         -0.5518160997        1.2011499504        0.0000763794
 C         -1.9345664333        1.1966674573        0.0001523638
 C         -2.6331169568       -0.0064080560        0.0002648029
 O         -3.9875934927       -0.0576289465        0.0004448358
 Br         2.0355196042       -0.0002170001       -0.0002834779
 H         -2.4861240208       -2.1345916485        0.0003831169
 H         -0.0056561054       -2.1411712227        0.0001338561
 H         -0.0093728595        2.1338463072       -0.0000688448
 H         -2.4741061321        2.1343891497        0.0001879026
 H         -4.3557897891        0.8345017771        0.0004670000
          13
        -23.53527664
 C         -1.9297644778       -1.2062599698       -0.0000186341
 C         -0.5500946049       -1.2067311809        0.0000788364
 C          0.1309798632       -0.0002853851       -0.0001774011
 C         -0.5489989643        1.2040422878       -0.0001477287
 C         -1.9317232293        1.2006159402        0.0000333351
 C         -2.6309063244       -0.0019850742       -0.0000263495
 O         -3.9856772996       -0.0515232465        0.0000865417
 Br         2.0370739874        0.0012119601        0.0000259040
 H         -2.4847113296       -2.1303054997       -0.0001670613
 H         -0.0056564387       -2.1381606040       -0.0005217433
 H         -0.0068321846        2.1369176213        0.0001948668
 H         -2.4699249501        2.1388075552        0.0004389178
 H         -4.3530021575        0.8408982749       -0.0002984948
