  9
 
 C         -0.6534996198       -0.5650866979       -0.0000432431
 C         -0.1626352946        0.8485170331       -0.0000196531
 C          0.8161195257       -0.2833971387        0.0000611603
 H         -1.1007929600       -0.9519782743       -0.9029045178
 H         -1.1009177345       -0.9519752996        0.9027780177
 H         -0.2739104157        1.4293847532       -0.9028680901
 H         -0.2740284111        1.4294322852        0.9027922995
 H          1.3749000276       -0.4774560011       -0.9027324655
 H          1.3747648823       -0.4774406599        0.9029364921
           9
         -9.44819094
 C         -0.1604945911       -0.8489526517        0.0000184943
 C         -0.6550260493        0.5634671824       -0.0000361779
 C          0.8155142990        0.2855358931        0.0000146619
 H         -0.2700218963       -1.4296947534       -0.9030904931
 H         -0.2703922169       -1.4301756340        0.9029303439
 H         -1.1036388115        0.9489287800       -0.9028636492
 H         -1.1031251569        0.9487742648        0.9032137674
 H          1.3736071361        0.4805247973       -0.9030787286
 H          1.3736465149        0.4810416522        0.9029247698
