 9

C      0.595000    -0.713000     0.557000
C      2.078000    -0.493000     0.616000
C      1.518000    -1.610000    -0.215000
H      0.000000     0.000000    -0.000000
H      0.110000    -1.122000     1.434000
H      2.482000     0.368000     0.098000
H      2.591000    -0.754000     1.533000
H      1.545000    -1.501000    -1.292000
H      1.654000    -2.623000     0.143000
