24
 xtb: 6.7.1 (edcfbbe)
C           -2.83984079355132        0.86486421841803       -0.49793777607738
C           -2.42047541471878       -0.21998310329438        0.49468627943650
C           -1.14813073481136       -0.98890413092866        0.11157992194373
C            0.17864559148752       -0.32072818932402        0.47637900602916
C            1.39833957161530       -1.23027964048875        0.15625684207725
C            2.51994822329501       -0.29973121311778       -0.36857529385799
C            2.02564476223427        1.12283144567011       -0.06786857510711
C            0.50882568235283        1.00401321634917       -0.23218495095628
H           -2.96940630487288        0.44111723560723       -1.50033223599364
H           -3.79322958358657        1.31613488147828       -0.20255780661666
H           -2.10369321938760        1.66938822770356       -0.56986925874814
H           -2.29049076334047        0.21946630321424        1.49303684510078
H           -3.24650996373344       -0.93649138428363        0.58273118949098
H           -1.16806847627155       -1.96859216103283        0.60770947078397
H           -1.15732402605207       -1.19310310387094       -0.96955399266558
H            0.16955777508315       -0.11997445082551        1.55731870830556
H            1.71152004266300       -1.78491752421195        1.04639722567337
H            1.12409848543474       -1.97344014251181       -0.60102833953851
H            3.49340076725940       -0.51252562289846        0.08346282549975
H            2.63207413267660       -0.42252008423204       -1.45159585323211
H            2.25829138501867        1.39263614408768        0.97035074886530
H            2.47722136944531        1.87946668777784       -0.71766572304343
H           -0.03142777094247        1.85847002281879        0.18616964046519
H            0.25226914569787        0.92979810523805       -1.29850415833030
