 xtb: 6.7.1 (edcfbbe)
          04112512053D

 26 25  0     0  0            999 V2000
   -1.6467   -0.6370    1.2989 C   0  0  0  0  0  0  0  0  0  0  0  0
   -1.2154   -0.4753   -0.1574 C   0  0  0  0  0  0  0  0  0  0  0  0
   -2.3932    0.0321   -0.9929 C   0  0  0  0  0  0  0  0  0  0  0  0
    0.0321    0.4200   -0.3299 C   0  0  0  0  0  0  0  0  0  0  0  0
   -0.1875    1.8163    0.2587 C   0  0  0  0  0  0  0  0  0  0  0  0
    1.3168   -0.2125    0.2501 C   0  0  0  0  0  0  0  0  0  0  0  0
    1.5696   -1.6234   -0.2858 C   0  0  0  0  0  0  0  0  0  0  0  0
    2.5395    0.6528   -0.0661 C   0  0  0  0  0  0  0  0  0  0  0  0
   -2.4849   -1.3279    1.3606 H   0  0  0  0  0  0  0  0  0  0  0  0
   -0.8372   -1.0332    1.9060 H   0  0  0  0  0  0  0  0  0  0  0  0
   -1.9622    0.3148    1.7175 H   0  0  0  0  0  0  0  0  0  0  0  0
   -0.9635   -1.4647   -0.5492 H   0  0  0  0  0  0  0  0  0  0  0  0
   -2.7974    0.9583   -0.5928 H   0  0  0  0  0  0  0  0  0  0  0  0
   -3.1920   -0.7064   -0.9915 H   0  0  0  0  0  0  0  0  0  0  0  0
   -2.0890    0.2040   -2.0230 H   0  0  0  0  0  0  0  0  0  0  0  0
    0.1874    0.5296   -1.4108 H   0  0  0  0  0  0  0  0  0  0  0  0
   -1.1667    2.1995   -0.0115 H   0  0  0  0  0  0  0  0  0  0  0  0
    0.5516    2.5148   -0.1224 H   0  0  0  0  0  0  0  0  0  0  0  0
   -0.1112    1.7934    1.3431 H   0  0  0  0  0  0  0  0  0  0  0  0
    1.2179   -0.2692    1.3394 H   0  0  0  0  0  0  0  0  0  0  0  0
    2.5567   -1.9633    0.0200 H   0  0  0  0  0  0  0  0  0  0  0  0
    0.8439   -2.3359    0.0959 H   0  0  0  0  0  0  0  0  0  0  0  0
    1.5291   -1.6299   -1.3731 H   0  0  0  0  0  0  0  0  0  0  0  0
    2.4822    1.6199    0.4238 H   0  0  0  0  0  0  0  0  0  0  0  0
    2.6248    0.8096   -1.1395 H   0  0  0  0  0  0  0  0  0  0  0  0
    3.4451    0.1587    0.2790 H   0  0  0  0  0  0  0  0  0  0  0  0
  1  2  1  0  0  0  0
  2  3  1  0  0  0  0
  2  4  1  0  0  0  0
  4  5  1  0  0  0  0
  4  6  1  0  0  0  0
  6  7  1  0  0  0  0
  6  8  1  0  0  0  0
  1  9  1  0  0  0  0
  1 10  1  0  0  0  0
  1 11  1  0  0  0  0
  2 12  1  0  0  0  0
  3 13  1  0  0  0  0
  3 14  1  0  0  0  0
  3 15  1  0  0  0  0
  4 16  1  0  0  0  0
  5 17  1  0  0  0  0
  5 18  1  0  0  0  0
  5 19  1  0  0  0  0
  6 20  1  0  0  0  0
  7 21  1  0  0  0  0
  7 22  1  0  0  0  0
  7 23  1  0  0  0  0
  8 24  1  0  0  0  0
  8 25  1  0  0  0  0
  8 26  1  0  0  0  0
M  END
