14
 xtb: 6.7.1 (edcfbbe)
C            1.76785256352986       -0.77792475367703        0.20650043315411
O            1.01473659655344        0.20977965353292       -0.49924051707274
C            0.02664697722159        0.86957737104022        0.31694995678208
C           -1.37248837179535        0.53331802608987       -0.16716448549910
N           -1.73356324792650       -0.89175136562332       -0.09094893791009
H            1.11983221399578       -1.55757237212783        0.62894558520502
H            2.35629861606167       -0.32534748313990        1.01719920689053
H            2.45146627051431       -1.23537838934378       -0.51404941920525
H            0.14934386444564        0.57363280152120        1.36777255219800
H            0.19626234515051        1.95312316560064        0.24668428485051
H           -2.08654214126060        1.11870226858253        0.42477141013108
H           -1.47869407751386        0.86436442379401       -1.20695115627601
H           -1.59905999380455       -1.19728645290999        0.87018334499878
H           -1.04267719652072       -1.41275657521224       -0.62539825385234
