21
CONF1
C -3.6033337683 0.1070461387 0.0051122161
O -2.3304716398 0.7727435510 -0.0004588444
C -1.2150717040 -0.0254594150 -0.0010010497
C -1.2259802449 -1.4222663302 -0.0009697025
C -0.0179445550 -2.1150530041 -0.0010497086
C 1.2038180502 -1.4466464871 -0.0011332206
C 1.2076201496 -0.0518281870 -0.0012919949
C 0.0035194780 0.6610592558 -0.0014282001
O -0.0134077646 2.0375402669 -0.0014505813
O 2.3260333183 0.7434337880 -0.0012366484
C 3.6013359647 0.0815309609 0.0053421799
H -4.3497103376 0.9020736662 0.0070786896
H -3.7198142525 -0.5087572036 0.9037274952
H -3.7268105442 -0.5108019927 -0.8911544383
H -2.1610930495 -1.9672386804 -0.0008423051
H -0.0292870815 -3.1999153210 -0.0010299111
H 2.1314006148 -2.0048479856 -0.0010622056
H 0.9071446566 2.3409736661 -0.0012438998
H 3.7156514069 -0.5329764621 0.9047867228
H 4.3459108264 0.8779684791 0.0069473676
H 3.7233407625 -0.5364097065 -0.8907190144
21
CONF2
C -2.9656104353 1.4543114793 -0.0041261910
O -2.5881469525 0.0636654087 0.0034633738
C -1.2712934883 -0.3318116451 0.0013999571
C -1.0976312541 -1.7237870234 -0.0002429269
C 0.1667070440 -2.2862251295 -0.0013472492
C 1.3058842026 -1.4797092799 -0.0012217616
C 1.1382853271 -0.1011401565 0.0002301760
C -0.1412453665 0.4934551612 0.0018419870
O -0.2305321905 1.8682093397 0.0043911361
O 2.1578081050 0.8177336381 0.0008513969
C 3.5022528793 0.3124487068 -0.0024682179
H -2.6087993475 1.9678617074 0.8916081304
H -4.0570716114 1.4440910363 -0.0055687538
H -2.6063566018 1.9587464097 -0.9041079341
H -1.9870466296 -2.3449822428 -0.0005710012
H 0.2747045794 -3.3656416752 -0.0024706239
H 2.2934803975 -1.9225835799 -0.0021222383
H 0.6777164048 2.2090545953 0.0033998837
H 4.1466900621 1.1917851047 -0.0027645881
H 3.6899171107 -0.2847345567 -0.9011741199
H 3.6936470028 -0.2868034961 0.8940802619
