 xtb: 6.7.1 (edcfbbe)
          04112512143D

 21 20  0     0  0            999 V2000
    1.8950    0.7412   -1.0611 C   0  0  0  0  0  0  0  0  0  0  0  0
    1.4353   -0.2225    0.0360 C   0  0  0  0  0  0  0  0  0  0  0  0
    2.1997   -1.0157    0.1178 H   0  0  0  0  0  0  0  0  0  0  0  0
    0.0937   -0.9098   -0.2928 C   0  0  0  0  0  0  0  0  0  0  0  0
   -1.1631   -0.2272    0.2627 C   0  0  0  0  0  0  0  0  0  0  0  0
   -1.4047    1.1547   -0.3383 C   0  0  0  0  0  0  0  0  0  0  0  0
   -2.3728   -1.1245    0.0024 C   0  0  0  0  0  0  0  0  0  0  0  0
    1.3243    0.4241    1.2931 O   0  0  0  0  0  0  0  0  0  0  0  0
    1.9916    0.2043   -2.0003 H   0  0  0  0  0  0  0  0  0  0  0  0
    1.1853    1.5517   -1.1897 H   0  0  0  0  0  0  0  0  0  0  0  0
    2.8651    1.1642   -0.8071 H   0  0  0  0  0  0  0  0  0  0  0  0
    0.0084   -1.0009   -1.3766 H   0  0  0  0  0  0  0  0  0  0  0  0
    0.1227   -1.9184    0.1248 H   0  0  0  0  0  0  0  0  0  0  0  0
   -1.0332   -0.1148    1.3435 H   0  0  0  0  0  0  0  0  0  0  0  0
   -2.3699    1.5371   -0.0131 H   0  0  0  0  0  0  0  0  0  0  0  0
   -1.4029    1.1063   -1.4253 H   0  0  0  0  0  0  0  0  0  0  0  0
   -0.6411    1.8525   -0.0081 H   0  0  0  0  0  0  0  0  0  0  0  0
   -3.2706   -0.6823    0.4274 H   0  0  0  0  0  0  0  0  0  0  0  0
   -2.5253   -1.2514   -1.0674 H   0  0  0  0  0  0  0  0  0  0  0  0
   -2.2309   -2.1060    0.4487 H   0  0  0  0  0  0  0  0  0  0  0  0
    2.1685    0.8431    1.5058 H   0  0  0  0  0  0  0  0  0  0  0  0
  1  2  1  0  0  0  0
  2  3  1  0  0  0  0
  2  4  1  0  0  0  0
  4  5  1  0  0  0  0
  5  6  1  0  0  0  0
  5  7  1  0  0  0  0
  2  8  1  0  0  0  0
  1  9  1  0  0  0  0
  1 10  1  0  0  0  0
  1 11  1  0  0  0  0
  4 12  1  0  0  0  0
  4 13  1  0  0  0  0
  5 14  1  0  0  0  0
  6 15  1  0  0  0  0
  6 16  1  0  0  0  0
  6 17  1  0  0  0  0
  7 18  1  0  0  0  0
  7 19  1  0  0  0  0
  7 20  1  0  0  0  0
  8 21  1  0  0  0  0
M  END
