  20
 
 C         -1.0136289359       -1.1536886579        0.8547458558
 C         -0.7049397771       -0.3041491616       -0.3760114169
 C         -1.7784241452        0.7715988510       -0.5413342025
 C          0.7104188236        0.3092972185       -0.3630186376
 C          1.0029650961        1.1453027849        0.8808769819
 C          1.7859774866       -0.7650515394       -0.5246455028
 H         -0.2747660234       -1.9396843508        0.9857216085
 H         -1.0370816701       -0.5418153895        1.7530804826
 H         -1.9887548352       -1.6235064796        0.7425867462
 H         -0.7543848140       -0.9573121626       -1.2562353362
 H         -1.5630567843        1.4046029442       -1.3998568193
 H         -2.7517875041        0.3101407848       -0.6937356061
 H         -1.8402210365        1.4000938693        0.3436296040
 H          0.7717892326        0.9718402180       -1.2354359473
 H          1.9775728781        1.6196824814        0.7843231941
 H          0.2602957740        1.9272805073        1.0137239699
 H          1.0194688709        0.5229180612        1.7720247521
 H          2.7606676912       -0.3020487722       -0.6613368577
 H          1.5809285243       -1.3905104657       -1.3907505529
 H          1.8369874189       -1.4004900281        0.3558559194
          20
        -19.99478312
 C         -1.0039550061       -1.1246520932        0.8975764002
 C         -0.7021724931       -0.3194155385       -0.3646049020
 C         -1.7912365796        0.7321127271       -0.5768510980
 C          0.7021277355        0.3194122228       -0.3646171768
 C          1.0040623027        1.1246325939        0.8975446930
 C          1.7911639864       -0.7320982966       -0.5769246814
 H         -1.0822641598       -0.4723195008        1.7634161996
 H         -1.9511822460       -1.6478310333        0.7834540417
 H         -0.2314815285       -1.8652911836        1.0862987038
 H         -0.7361814856       -1.0067755208       -1.2188947819
 H         -1.8325418191        1.4244954608        0.2604834059
 H         -1.6070277500        1.3013352683       -1.4855490596
 H         -2.7640024506        0.2530540258       -0.6654162212
 H          0.7360812461        1.0067934665       -1.2188843940
 H          1.0856958722        0.4719191515        1.7628208542
 H          1.9496910059        1.6504304301        0.7821292528
 H          0.2300114415        1.8631543624        1.0881273069
 H          1.8315673824       -1.4253565742        0.2597304192
 H          2.7641089423       -0.2531638787       -0.6641373821
 H          1.6076453635       -1.3003445566       -1.4863635181
