 xtb: 6.7.1 (edcfbbe)
          04112512133D

 24 24  0     0  0            999 V2000
   -2.1836   -0.2424   -1.1996 C   0  0  0  0  0  0  0  0  0  0  0  0
   -2.2037    0.3213    0.2163 C   0  0  0  0  0  0  0  0  0  0  0  0
   -1.2191   -0.3323    1.1908 C   0  0  0  0  0  0  0  0  0  0  0  0
    0.2839   -0.1919    0.9049 C   0  0  0  0  0  0  0  0  0  0  0  0
    0.8520   -1.1990   -0.1219 C   0  0  0  0  0  0  0  0  0  0  0  0
    1.8122   -0.4045   -1.0200 C   0  0  0  0  0  0  0  0  0  0  0  0
    2.0944    0.8804   -0.2428 C   0  0  0  0  0  0  0  0  0  0  0  0
    0.7472    1.1817    0.4049 C   0  0  0  0  0  0  0  0  0  0  0  0
   -2.9844    0.2030   -1.7867 H   0  0  0  0  0  0  0  0  0  0  0  0
   -1.2423   -0.0269   -1.6963 H   0  0  0  0  0  0  0  0  0  0  0  0
   -2.3335   -1.3199   -1.1842 H   0  0  0  0  0  0  0  0  0  0  0  0
   -2.0252    1.3974    0.1822 H   0  0  0  0  0  0  0  0  0  0  0  0
   -3.2057    0.1784    0.6299 H   0  0  0  0  0  0  0  0  0  0  0  0
   -1.4125    0.1046    2.1745 H   0  0  0  0  0  0  0  0  0  0  0  0
   -1.4486   -1.3985    1.2621 H   0  0  0  0  0  0  0  0  0  0  0  0
    0.7929   -0.3774    1.8579 H   0  0  0  0  0  0  0  0  0  0  0  0
    1.3844   -1.9966    0.3973 H   0  0  0  0  0  0  0  0  0  0  0  0
    0.0622   -1.6647   -0.7059 H   0  0  0  0  0  0  0  0  0  0  0  0
    2.7209   -0.9607   -1.2457 H   0  0  0  0  0  0  0  0  0  0  0  0
    1.3273   -0.1568   -1.9658 H   0  0  0  0  0  0  0  0  0  0  0  0
    2.8465    0.6967    0.5264 H   0  0  0  0  0  0  0  0  0  0  0  0
    2.4456    1.6884   -0.8835 H   0  0  0  0  0  0  0  0  0  0  0  0
    0.8164    1.9102    1.2119 H   0  0  0  0  0  0  0  0  0  0  0  0
    0.0675    1.5680   -0.3531 H   0  0  0  0  0  0  0  0  0  0  0  0
  1  2  1  0  0  0  0
  2  3  1  0  0  0  0
  3  4  1  0  0  0  0
  4  5  1  0  0  0  0
  5  6  1  0  0  0  0
  6  7  1  0  0  0  0
  4  8  1  0  0  0  0
  7  8  1  0  0  0  0
  1  9  1  0  0  0  0
  1 10  1  0  0  0  0
  1 11  1  0  0  0  0
  2 12  1  0  0  0  0
  2 13  1  0  0  0  0
  3 14  1  0  0  0  0
  3 15  1  0  0  0  0
  4 16  1  0  0  0  0
  5 17  1  0  0  0  0
  5 18  1  0  0  0  0
  6 19  1  0  0  0  0
  6 20  1  0  0  0  0
  7 21  1  0  0  0  0
  7 22  1  0  0  0  0
  8 23  1  0  0  0  0
  8 24  1  0  0  0  0
M  END
