 xtb: 6.7.1 (edcfbbe)
          04072507503D

 21 20  0     0  0            999 V2000
    1.4585   -0.6033   -1.1060 C   0  0  0  0  0  0  0  0  0  0  0  0
    1.0930   -0.1039    0.2940 C   0  0  0  0  0  0  0  0  0  0  0  0
    2.2315    0.7368    0.8722 C   0  0  0  0  0  0  0  0  0  0  0  0
   -0.0482    0.7503    0.3186 O   0  0  0  0  0  0  0  0  0  0  0  0
   -1.3618    0.2249    0.1358 C   0  0  0  0  0  0  0  0  0  0  0  0
   -1.7525    0.0935   -1.3408 C   0  0  0  0  0  0  0  0  0  0  0  0
   -1.6394   -1.0728    0.8936 C   0  0  0  0  0  0  0  0  0  0  0  0
    1.4598    0.2294   -1.8047 H   0  0  0  0  0  0  0  0  0  0  0  0
    2.4508   -1.0447   -1.0808 H   0  0  0  0  0  0  0  0  0  0  0  0
    0.7587   -1.3564   -1.4562 H   0  0  0  0  0  0  0  0  0  0  0  0
    0.9220   -0.9669    0.9536 H   0  0  0  0  0  0  0  0  0  0  0  0
    1.9464    1.1193    1.8482 H   0  0  0  0  0  0  0  0  0  0  0  0
    2.4302    1.5803    0.2170 H   0  0  0  0  0  0  0  0  0  0  0  0
    3.1296    0.1351    0.9701 H   0  0  0  0  0  0  0  0  0  0  0  0
   -1.9767    1.0227    0.5752 H   0  0  0  0  0  0  0  0  0  0  0  0
   -1.4182    0.9714   -1.8872 H   0  0  0  0  0  0  0  0  0  0  0  0
   -1.3138   -0.7908   -1.7933 H   0  0  0  0  0  0  0  0  0  0  0  0
   -2.8336    0.0215   -1.4201 H   0  0  0  0  0  0  0  0  0  0  0  0
   -2.7068   -1.2707    0.8673 H   0  0  0  0  0  0  0  0  0  0  0  0
   -1.3271   -0.9821    1.9314 H   0  0  0  0  0  0  0  0  0  0  0  0
   -1.1223   -1.9134    0.4367 H   0  0  0  0  0  0  0  0  0  0  0  0
  1  2  1  0  0  0  0
  2  3  1  0  0  0  0
  2  4  1  0  0  0  0
  4  5  1  0  0  0  0
  5  6  1  0  0  0  0
  5  7  1  0  0  0  0
  1  8  1  0  0  0  0
  1  9  1  0  0  0  0
  1 10  1  0  0  0  0
  2 11  1  0  0  0  0
  3 12  1  0  0  0  0
  3 13  1  0  0  0  0
  3 14  1  0  0  0  0
  5 15  1  0  0  0  0
  6 16  1  0  0  0  0
  6 17  1  0  0  0  0
  6 18  1  0  0  0  0
  7 19  1  0  0  0  0
  7 20  1  0  0  0  0
  7 21  1  0  0  0  0
M  END
