 xtb: 6.7.1 (edcfbbe)
          04112511553D

 24 24  0     0  0            999 V2000
   -2.7771    0.9999    0.0942 C   0  0  0  0  0  0  0  0  0  0  0  0
   -2.4609   -0.4757    0.3049 C   0  0  0  0  0  0  0  0  0  0  0  0
   -1.1618   -0.9363   -0.3593 C   0  0  0  0  0  0  0  0  0  0  0  0
    0.1106   -0.3006    0.2071 C   0  0  0  0  0  0  0  0  0  0  0  0
    1.3374   -1.2067    0.0487 C   0  0  0  0  0  0  0  0  0  0  0  0
    2.5459   -0.2823    0.2420 C   0  0  0  0  0  0  0  0  0  0  0  0
    2.0300    1.1434   -0.0332 C   0  0  0  0  0  0  0  0  0  0  0  0
    0.5806    0.9750   -0.4962 C   0  0  0  0  0  0  0  0  0  0  0  0
   -2.0672    1.6287    0.6240 H   0  0  0  0  0  0  0  0  0  0  0  0
   -2.7411    1.2500   -0.9635 H   0  0  0  0  0  0  0  0  0  0  0  0
   -3.7732    1.2268    0.4678 H   0  0  0  0  0  0  0  0  0  0  0  0
   -2.4084   -0.6839    1.3761 H   0  0  0  0  0  0  0  0  0  0  0  0
   -3.2798   -1.0722   -0.1048 H   0  0  0  0  0  0  0  0  0  0  0  0
   -1.0906   -2.0190   -0.2261 H   0  0  0  0  0  0  0  0  0  0  0  0
   -1.2164   -0.7427   -1.4331 H   0  0  0  0  0  0  0  0  0  0  0  0
   -0.0353   -0.0891    1.2714 H   0  0  0  0  0  0  0  0  0  0  0  0
    1.3337   -2.0343    0.7569 H   0  0  0  0  0  0  0  0  0  0  0  0
    1.3400   -1.6238   -0.9600 H   0  0  0  0  0  0  0  0  0  0  0  0
    2.9256   -0.3579    1.2609 H   0  0  0  0  0  0  0  0  0  0  0  0
    3.3575   -0.5518   -0.4327 H   0  0  0  0  0  0  0  0  0  0  0  0
    2.0598    1.7360    0.8818 H   0  0  0  0  0  0  0  0  0  0  0  0
    2.6324    1.6582   -0.7802 H   0  0  0  0  0  0  0  0  0  0  0  0
   -0.0236    1.8479   -0.2596 H   0  0  0  0  0  0  0  0  0  0  0  0
    0.5474    0.8199   -1.5763 H   0  0  0  0  0  0  0  0  0  0  0  0
  1  2  1  0  0  0  0
  2  3  1  0  0  0  0
  3  4  1  0  0  0  0
  4  5  1  0  0  0  0
  5  6  1  0  0  0  0
  6  7  1  0  0  0  0
  4  8  1  0  0  0  0
  7  8  1  0  0  0  0
  1  9  1  0  0  0  0
  1 10  1  0  0  0  0
  1 11  1  0  0  0  0
  2 12  1  0  0  0  0
  2 13  1  0  0  0  0
  3 14  1  0  0  0  0
  3 15  1  0  0  0  0
  4 16  1  0  0  0  0
  5 17  1  0  0  0  0
  5 18  1  0  0  0  0
  6 19  1  0  0  0  0
  6 20  1  0  0  0  0
  7 21  1  0  0  0  0
  7 22  1  0  0  0  0
  8 23  1  0  0  0  0
  8 24  1  0  0  0  0
M  END
