 xtb: 6.7.1 (edcfbbe)
          04112511413D

 14 13  0     0  0            999 V2000
   -1.3007    0.0513    0.5484 C   0  0  0  0  0  0  0  0  0  0  0  0
    0.1002    0.6870    0.6289 C   0  0  0  0  0  0  0  0  0  0  0  0
    1.2087   -0.3793    0.6556 C   0  0  0  0  0  0  0  0  0  0  0  0
    1.2341   -1.2280   -0.4628 O   0  0  0  0  0  0  0  0  0  0  0  0
    0.3166    1.5372   -0.4807 O   0  0  0  0  0  0  0  0  0  0  0  0
   -1.4901   -0.6638   -0.6530 O   0  0  0  0  0  0  0  0  0  0  0  0
   -2.0645    0.8352    0.6425 H   0  0  0  0  0  0  0  0  0  0  0  0
   -1.4336   -0.6639    1.3617 H   0  0  0  0  0  0  0  0  0  0  0  0
    0.1748    1.2491    1.5697 H   0  0  0  0  0  0  0  0  0  0  0  0
    1.0933   -0.9645    1.5795 H   0  0  0  0  0  0  0  0  0  0  0  0
    2.1798    0.1214    0.6720 H   0  0  0  0  0  0  0  0  0  0  0  0
    0.3272   -1.5417   -0.6278 H   0  0  0  0  0  0  0  0  0  0  0  0
   -0.1829    2.3574   -0.3675 H   0  0  0  0  0  0  0  0  0  0  0  0
   -1.2521   -0.0765   -1.3883 H   0  0  0  0  0  0  0  0  0  0  0  0
  1  2  1  0  0  0  0
  2  3  1  0  0  0  0
  3  4  1  0  0  0  0
  2  5  1  0  0  0  0
  1  6  1  0  0  0  0
  1  7  1  0  0  0  0
  1  8  1  0  0  0  0
  2  9  1  0  0  0  0
  3 10  1  0  0  0  0
  3 11  1  0  0  0  0
  4 12  1  0  0  0  0
  5 13  1  0  0  0  0
  6 14  1  0  0  0  0
M  END
