 xtb: 6.7.1 (edcfbbe)
          04112512193D

 17 16  0     0  0            999 V2000
   -2.6516    0.0065    0.8251 C   0  0  0  0  0  0  0  0  0  0  0  0
   -1.7219    0.7321   -0.1486 C   0  0  0  0  0  0  0  0  0  0  0  0
   -0.4999   -0.1067   -0.4247 C   0  0  0  0  0  0  0  0  0  0  0  0
   -0.5196   -1.2165   -0.9173 O   0  0  0  0  0  0  0  0  0  0  0  0
    0.6109    0.5094   -0.0496 O   0  0  0  0  0  0  0  0  0  0  0  0
    1.8717   -0.1632   -0.2162 C   0  0  0  0  0  0  0  0  0  0  0  0
    2.8129    0.2942    0.8830 C   0  0  0  0  0  0  0  0  0  0  0  0
   -3.5672    0.5748    0.9557 H   0  0  0  0  0  0  0  0  0  0  0  0
   -2.8977   -0.9789    0.4367 H   0  0  0  0  0  0  0  0  0  0  0  0
   -2.1714   -0.1126    1.7931 H   0  0  0  0  0  0  0  0  0  0  0  0
   -1.4034    1.6921    0.2543 H   0  0  0  0  0  0  0  0  0  0  0  0
   -2.2400    0.8854   -1.0964 H   0  0  0  0  0  0  0  0  0  0  0  0
    1.6956   -1.2431   -0.1831 H   0  0  0  0  0  0  0  0  0  0  0  0
    2.2590    0.0997   -1.2052 H   0  0  0  0  0  0  0  0  0  0  0  0
    2.9352    1.3723    0.8399 H   0  0  0  0  0  0  0  0  0  0  0  0
    2.4133    0.0253    1.8567 H   0  0  0  0  0  0  0  0  0  0  0  0
    3.7784   -0.1825    0.7494 H   0  0  0  0  0  0  0  0  0  0  0  0
  1  2  1  0  0  0  0
  2  3  1  0  0  0  0
  3  4  2  0  0  0  0
  3  5  1  0  0  0  0
  5  6  1  0  0  0  0
  6  7  1  0  0  0  0
  1  8  1  0  0  0  0
  1  9  1  0  0  0  0
  1 10  1  0  0  0  0
  2 11  1  0  0  0  0
  2 12  1  0  0  0  0
  6 13  1  0  0  0  0
  6 14  1  0  0  0  0
  7 15  1  0  0  0  0
  7 16  1  0  0  0  0
  7 17  1  0  0  0  0
M  END
