 xtb: 6.7.1 (edcfbbe)
          04112511193D

 14 13  0     0  0            999 V2000
   -1.1631    0.1576   -0.4866 C   0  0  0  0  0  0  0  0  0  0  0  0
   -0.0333    0.5375    0.4922 C   0  0  0  0  0  0  0  0  0  0  0  0
    0.9951   -0.5921    0.6446 C   0  0  0  0  0  0  0  0  0  0  0  0
    1.5310   -0.8824   -0.6311 O   0  0  0  0  0  0  0  0  0  0  0  0
    0.5966    1.7277    0.0777 O   0  0  0  0  0  0  0  0  0  0  0  0
   -2.0438   -0.8111    0.0314 O   0  0  0  0  0  0  0  0  0  0  0  0
   -0.7228   -0.1736   -1.4343 H   0  0  0  0  0  0  0  0  0  0  0  0
   -1.7664    1.0501   -0.6692 H   0  0  0  0  0  0  0  0  0  0  0  0
   -0.4724    0.7529    1.4719 H   0  0  0  0  0  0  0  0  0  0  0  0
    0.5091   -1.4737    1.0789 H   0  0  0  0  0  0  0  0  0  0  0  0
    1.7815   -0.2488    1.3274 H   0  0  0  0  0  0  0  0  0  0  0  0
    2.2377   -1.5350   -0.5428 H   0  0  0  0  0  0  0  0  0  0  0  0
    1.1074    1.5311   -0.7226 H   0  0  0  0  0  0  0  0  0  0  0  0
   -1.6080   -1.6740    0.0301 H   0  0  0  0  0  0  0  0  0  0  0  0
  1  2  1  0  0  0  0
  2  3  1  0  0  0  0
  3  4  1  0  0  0  0
  2  5  1  0  0  0  0
  1  6  1  0  0  0  0
  1  7  1  0  0  0  0
  1  8  1  0  0  0  0
  2  9  1  0  0  0  0
  3 10  1  0  0  0  0
  3 11  1  0  0  0  0
  4 12  1  0  0  0  0
  5 13  1  0  0  0  0
  6 14  1  0  0  0  0
M  END
