17
CONF1
C 2.5419784190 -0.3326469573 0.0003436211
C 1.2765940421 0.5205040635 -0.0005376922
C 0.0000024699 -0.3183546424 -0.0000544213
C -1.2765884337 0.5205046958 0.0005412148
C -2.5419732373 -0.3326452068 -0.0002707234
H 3.4455538750 0.2857748190 -0.0001957275
H 2.5785374428 -0.9794740026 -0.8835668683
H 2.5784271387 -0.9777601300 0.8855099670
H 1.2753124118 1.1791836700 0.8780327582
H 1.2755463284 1.1777290733 -0.8801966959
H 0.0003583444 -0.9777458148 0.8795272015
H -0.0003530668 -0.9776194417 -0.8797305773
H -1.2754801498 1.1777016192 0.8802213648
H -1.2753668243 1.1792124741 -0.8780079386
H -2.5783628762 -0.9779185002 -0.8853234810
H -3.4455479214 0.2857782603 0.0000967362
H -2.5785924983 -0.9793121938 0.8837541457
17
CONF2
C 2.1153736506 -0.3041844594 -0.5949781833
C 1.3767647296 0.4852800329 0.4845748408
C -0.0513974446 -0.0045385248 0.7407998544
C -0.9942197516 0.1525419456 -0.4525022354
C -2.4205917340 -0.2821867065 -0.1245922604
H 3.1524882268 0.0343349776 -0.6906028840
H 1.6421756703 -0.1929966516 -1.5758203852
H 2.1335131269 -1.3733243757 -0.3522515804
H 1.9437318350 0.4245208676 1.4218000471
H 1.3484716731 1.5476156160 0.2077772172
H -0.4703655705 0.5475169476 1.5929424913
H -0.0225113396 -1.0620428466 1.0398828110
H -0.9926806725 1.2025989943 -0.7752501535
H -0.6237327072 -0.4347351934 -1.3013125451
H -2.8317298295 0.3096739131 0.7011669329
H -2.4483692519 -1.3358622076 0.1758278255
H -3.0861018123 -0.1628470039 -0.9859280783
17
CONF3
C 1.8256325359 -0.7061271709 0.2935218109
C 1.1066936231 0.2385115922 -0.6667627510
C 0.0001169843 1.0636773957 -0.0007949066
C -1.1065505234 0.2395876635 0.6663511311
C -1.8258193279 -0.7061202071 -0.2926271934
H 2.2298412797 -0.1576387828 1.1522391371
H 2.6591011700 -1.2138602588 -0.2026776107
H 1.1533019291 -1.4788804005 0.6802971615
H 1.8365274142 0.9289725472 -1.1067613747
H 0.6901134389 -0.3364402830 -1.5028114099
H -0.4551706992 1.7199778165 -0.7547703126
H 0.4555171104 1.7209201346 0.7522919465
H -0.6899548103 -0.3343863208 1.5030617793
H -1.8361867543 0.9307536827 1.1055667562
H -2.2308400720 -0.1585463220 -1.1515421316
H -2.6587378512 -1.2137100368 0.2046158950
H -1.1534878033 -1.4789762515 -0.6792023482
17
CONF4
C 1.6435715155 -0.7738510629 0.5088885586
C 1.3708839362 0.5390666130 -0.2218860651
C -0.0305019520 0.6551226113 -0.8316667477
C -1.1867754623 0.5504421396 0.1807543414
C -1.7850910249 -0.8517175138 0.3016961901
H 1.4883938428 -1.6347904907 -0.1515521099
H 0.9892105834 -0.8946746868 1.3779819988
H 2.6771524711 -0.8107198768 0.8694263055
H 1.5227351259 1.3758308822 0.4729764921
H 2.1115902847 0.6648050231 -1.0218357452
H -0.1559859107 -0.1171124297 -1.6034878243
H -0.0891871989 1.6186353825 -1.3515282390
H -0.8376629589 0.8913104952 1.1648615473
H -1.9882835142 1.2392886380 -0.1111083721
H -2.2138173413 -1.1697077474 -0.6553968928
H -2.5852778985 -0.8777099941 1.0494958103
H -1.0347829192 -1.5941915864 0.5892157912
17
CONF5
C 1.8052862342 -0.6555087191 -0.5406554725
C 1.3959416660 0.5567872881 0.2925673128
C -0.0325567262 0.4494419872 0.8338834488
C -1.1205262335 0.4935641130 -0.2632503292
C -2.0302405467 -0.7320465691 -0.2602939093
H 2.8225160541 -0.5467879855 -0.9310729421
H 1.1379477137 -0.7998744956 -1.3974628460
H 1.7728098278 -1.5696250133 0.0633044726
H 2.0939386829 0.6693443369 1.1317315154
H 1.4860667316 1.4697947852 -0.3114389287
H -0.2028414937 1.2526930764 1.5598156752
H -0.1202751725 -0.4915965476 1.3943394221
H -1.7307789126 1.3961327855 -0.1447553590
H -0.6440209021 0.5807436344 -1.2475954923
H -2.7910078261 -0.6730937284 -1.0463443933
H -2.5485333952 -0.8342666476 0.6999260644
H -1.4493846386 -1.6477097219 -0.4214782568
