 xtb: 6.7.1 (edcfbbe)
          04072508503D

 19 19  0     0  0            999 V2000
   -2.7760   -0.0018   -0.3004 C   0  0  0  0  0  0  0  0  0  0  0  0
   -2.1017   -1.2005   -0.1404 C   0  0  0  0  0  0  0  0  0  0  0  0
   -0.7595   -1.2021    0.1969 C   0  0  0  0  0  0  0  0  0  0  0  0
   -0.0736   -0.0082    0.3818 C   0  0  0  0  0  0  0  0  0  0  0  0
   -0.7590    1.1890    0.2173 C   0  0  0  0  0  0  0  0  0  0  0  0
   -2.1011    1.1938   -0.1203 C   0  0  0  0  0  0  0  0  0  0  0  0
    1.3906   -0.0106    0.7122 C   0  0  0  0  0  0  0  0  0  0  0  0
    2.2301    0.0153   -0.5687 C   0  0  0  0  0  0  0  0  0  0  0  0
    3.5975    0.0175   -0.2117 O   0  0  0  0  0  0  0  0  0  0  0  0
   -3.8234    0.0007   -0.5622 H   0  0  0  0  0  0  0  0  0  0  0  0
   -2.6228   -2.1363   -0.2777 H   0  0  0  0  0  0  0  0  0  0  0  0
   -0.2377   -2.1397    0.3233 H   0  0  0  0  0  0  0  0  0  0  0  0
   -0.2367    2.1240    0.3598 H   0  0  0  0  0  0  0  0  0  0  0  0
   -2.6217    2.1320   -0.2418 H   0  0  0  0  0  0  0  0  0  0  0  0
    1.6540    0.8635    1.3095 H   0  0  0  0  0  0  0  0  0  0  0  0
    1.6587   -0.9042    1.2776 H   0  0  0  0  0  0  0  0  0  0  0  0
    1.9926   -0.8674   -1.1782 H   0  0  0  0  0  0  0  0  0  0  0  0
    1.9821    0.9148   -1.1488 H   0  0  0  0  0  0  0  0  0  0  0  0
    4.1396    0.0351   -1.0113 H   0  0  0  0  0  0  0  0  0  0  0  0
  1  2  4  0  0  0  0
  2  3  4  0  0  0  0
  3  4  4  0  0  0  0
  4  5  4  0  0  0  0
  1  6  4  0  0  0  0
  5  6  4  0  0  0  0
  4  7  1  0  0  0  0
  7  8  1  0  0  0  0
  8  9  1  0  0  0  0
  1 10  1  0  0  0  0
  2 11  1  0  0  0  0
  3 12  1  0  0  0  0
  5 13  1  0  0  0  0
  6 14  1  0  0  0  0
  7 15  1  0  0  0  0
  7 16  1  0  0  0  0
  8 17  1  0  0  0  0
  8 18  1  0  0  0  0
  9 19  1  0  0  0  0
M  END
