 xtb: 6.7.1 (edcfbbe)
          04112511323D

 24 24  0     0  0            999 V2000
    2.1844   -1.2253   -0.5367 C   0  0  0  0  0  0  0  0  0  0  0  0
    2.1079    0.0031    0.3656 C   0  0  0  0  0  0  0  0  0  0  0  0
    3.4785    0.6657    0.4809 C   0  0  0  0  0  0  0  0  0  0  0  0
    1.0755    1.0113   -0.1698 C   0  0  0  0  0  0  0  0  0  0  0  0
   -0.3205    0.4631   -0.1123 C   0  0  0  0  0  0  0  0  0  0  0  0
   -1.0025    0.4154    1.0984 C   0  0  0  0  0  0  0  0  0  0  0  0
   -2.2776   -0.1148    1.1732 C   0  0  0  0  0  0  0  0  0  0  0  0
   -2.8928   -0.6074    0.0342 C   0  0  0  0  0  0  0  0  0  0  0  0
   -2.2247   -0.5632   -1.1773 C   0  0  0  0  0  0  0  0  0  0  0  0
   -0.9484   -0.0319   -1.2482 C   0  0  0  0  0  0  0  0  0  0  0  0
    2.5080   -0.9411   -1.5359 H   0  0  0  0  0  0  0  0  0  0  0  0
    1.2120   -1.7068   -0.6117 H   0  0  0  0  0  0  0  0  0  0  0  0
    2.8952   -1.9454   -0.1381 H   0  0  0  0  0  0  0  0  0  0  0  0
    1.7873   -0.3182    1.3631 H   0  0  0  0  0  0  0  0  0  0  0  0
    3.8148    1.0113   -0.4943 H   0  0  0  0  0  0  0  0  0  0  0  0
    3.4391    1.5194    1.1536 H   0  0  0  0  0  0  0  0  0  0  0  0
    4.2102   -0.0407    0.8657 H   0  0  0  0  0  0  0  0  0  0  0  0
    1.3330    1.2694   -1.1987 H   0  0  0  0  0  0  0  0  0  0  0  0
    1.1302    1.9197    0.4343 H   0  0  0  0  0  0  0  0  0  0  0  0
   -0.5288    0.8018    1.9897 H   0  0  0  0  0  0  0  0  0  0  0  0
   -2.7946   -0.1426    2.1213 H   0  0  0  0  0  0  0  0  0  0  0  0
   -3.8886   -1.0211    0.0908 H   0  0  0  0  0  0  0  0  0  0  0  0
   -2.6991   -0.9438   -2.0700 H   0  0  0  0  0  0  0  0  0  0  0  0
   -0.4339    0.0001   -2.1979 H   0  0  0  0  0  0  0  0  0  0  0  0
  1  2  1  0  0  0  0
  2  3  1  0  0  0  0
  2  4  1  0  0  0  0
  4  5  1  0  0  0  0
  5  6  4  0  0  0  0
  6  7  4  0  0  0  0
  7  8  4  0  0  0  0
  8  9  4  0  0  0  0
  5 10  4  0  0  0  0
  9 10  4  0  0  0  0
  1 11  1  0  0  0  0
  1 12  1  0  0  0  0
  1 13  1  0  0  0  0
  2 14  1  0  0  0  0
  3 15  1  0  0  0  0
  3 16  1  0  0  0  0
  3 17  1  0  0  0  0
  4 18  1  0  0  0  0
  4 19  1  0  0  0  0
  6 20  1  0  0  0  0
  7 21  1  0  0  0  0
  8 22  1  0  0  0  0
  9 23  1  0  0  0  0
 10 24  1  0  0  0  0
M  END
