  24
 
 C         -2.7088498987       -1.6678780723        0.8091180155
 C         -2.3100918863       -1.0364868678       -0.5268442563
 C         -1.2944847024        0.0535584733       -0.3207937725
 C         -1.7197682521        1.3558325309       -0.2416271854
 C         -0.8276817645        2.4113070462       -0.0115338477
 C          0.5049467647        2.1584101438        0.1401415700
 C          0.9931951642        0.8376633377        0.0672586756
 C          0.0884030226       -0.2353285897       -0.1626492764
 C          0.6176158471       -1.5435354406       -0.2254287578
 C          1.9557431625       -1.7767090858       -0.0710046208
 C          2.8431952368       -0.7150623172        0.1555936476
 C          2.3684885921        0.5634407151        0.2220774789
 H         -3.4458926098       -2.4529489412        0.6541609710
 H         -3.1383737638       -0.9138887223        1.4652171221
 H         -1.8419509615       -2.0960573479        1.3068387912
 H         -3.1999104457       -0.6107758752       -0.9955742425
 H         -1.9216435864       -1.8051253964       -1.1966960912
 H         -2.7711786928        1.5788499564       -0.3600282886
 H         -1.2058723117        3.4218043400        0.0438709859
 H          1.2050816532        2.9621133328        0.3186650076
 H         -0.0429688035       -2.3786718547       -0.3992138355
 H          2.3392450056       -2.7856106454       -0.1240777424
 H          3.8978073836       -0.9170005974        0.2742231570
 H          3.0413514853        1.3917878397        0.3948666401
          24
        -31.80764577
 C         -2.6712371088       -1.6859356954        0.8308639078
 C         -2.3233096228       -1.0075862365       -0.4962851583
 C         -1.2963244064        0.0723872809       -0.2937870982
 C         -1.7079119467        1.3771422620       -0.1886147122
 C         -0.8015801895        2.4208654644        0.0398629374
 C          0.5307819680        2.1533964258        0.1666950552
 C          1.0052181601        0.8293512763        0.0673293602
 C          0.0865801122       -0.2310950634       -0.1656958386
 C          0.6020166767       -1.5428037599       -0.2609590310
 C          1.9395600391       -1.7917891871       -0.1280510109
 C          2.8402458950       -0.7430217255        0.1060050752
 C          2.3796001786        0.5389897928        0.1987712291
 H         -3.0723392778       -0.9557008833        1.5303742308
 H         -1.7873448312       -2.1338117535        1.2788356817
 H         -3.4163337972       -2.4634811733        0.6763322410
 H         -3.2296878522       -0.5639772300       -0.9139679678
 H         -1.9634503247       -1.7522755765       -1.2082838231
 H         -2.7590926039        1.6116943712       -0.2844352954
 H         -1.1686700902        3.4342076394        0.1148528312
 H          1.2410157003        2.9480750098        0.3455824871
 H         -0.0686843838       -2.3677770036       -0.4438149268
 H          2.3120512344       -2.8033078461       -0.2041987503
 H          3.8940186997       -0.9574770791        0.2090701717
 H          3.0633661208        1.3574391026        0.3757379798
