 xtb: 6.7.1 (edcfbbe)
          04112511523D

 13 12  0     0  0            999 V2000
   -2.0798   -0.5486   -0.0147 C   0  0  0  0  0  0  0  0  0  0  0  0
   -1.2822    0.5906   -0.2795 O   0  0  0  0  0  0  0  0  0  0  0  0
   -0.0149    0.5810    0.3373 C   0  0  0  0  0  0  0  0  0  0  0  0
    0.9823   -0.3873   -0.3113 C   0  0  0  0  0  0  0  0  0  0  0  0
    2.2467   -0.1418    0.2641 O   0  0  0  0  0  0  0  0  0  0  0  0
   -1.6830   -1.4415   -0.5055 H   0  0  0  0  0  0  0  0  0  0  0  0
   -3.0638   -0.3207   -0.4174 H   0  0  0  0  0  0  0  0  0  0  0  0
   -2.1532   -0.7283    1.0625 H   0  0  0  0  0  0  0  0  0  0  0  0
    0.3725    1.5969    0.2322 H   0  0  0  0  0  0  0  0  0  0  0  0
   -0.1035    0.3468    1.4069 H   0  0  0  0  0  0  0  0  0  0  0  0
    0.9969   -0.2028   -1.3935 H   0  0  0  0  0  0  0  0  0  0  0  0
    0.6754   -1.4253   -0.1292 H   0  0  0  0  0  0  0  0  0  0  0  0
    2.9045   -0.7214   -0.1452 H   0  0  0  0  0  0  0  0  0  0  0  0
  1  2  1  0  0  0  0
  2  3  1  0  0  0  0
  3  4  1  0  0  0  0
  4  5  1  0  0  0  0
  1  6  1  0  0  0  0
  1  7  1  0  0  0  0
  1  8  1  0  0  0  0
  3  9  1  0  0  0  0
  3 10  1  0  0  0  0
  4 11  1  0  0  0  0
  4 12  1  0  0  0  0
  5 13  1  0  0  0  0
M  END
