  5
 
 C         -0.0000134099       -0.0000361370       -0.0000307732
 F         -0.2987118397        0.7620057622       -1.0280506677
 F          0.0233317099       -1.2579297377       -0.3793070474
 F         -0.9050724465        0.1574578226        0.9395789914
 F          1.1804420996        0.3384140622        0.4677442787
           5
        -21.07856398
 C         -0.0000059705       -0.0000037365       -0.0000283168
 F         -0.3716076287        1.2143109442       -0.3378234848
 F          0.2055327666       -0.7128514578       -1.0845990850
 F         -0.9436656441       -0.5621141226        0.7213183759
 F          1.1097442808        0.0606569985        0.7011220960
