13
 xtb: 6.7.1 (edcfbbe)
C            1.85454069882296       -1.29413210406638       -0.05477213685519
O            1.09120632531720       -0.32082837172506       -0.84737690397523
S           -0.04572691909439        0.55459661294234       -0.11329820250522
O           -0.40511798420666        1.56932927484463       -1.09298494331400
O            0.39019382792734        0.91710610205507        1.23396197159574
O           -1.33525390768364       -0.40946382045011       -0.03705782672840
C           -1.46555569461827       -1.33836723652786        1.09443034699896
H            2.75269059480114       -1.47152930267627       -0.64531793820392
H            1.27830711947040       -2.21462970064199        0.04860648506138
H            2.11786631277192       -0.87327966675333        0.91689042944538
H           -0.89609492391933       -2.24585483382547        0.89052041566444
H           -2.53198165348586       -1.55735789967864        1.13692122623932
H           -1.14085066461231       -0.86105387564392        2.01999846330609
