 xtb: 6.7.1 (edcfbbe)
          04112512353D

 17 16  0     0  0            999 V2000
   -2.1753   -0.3344   -0.9347 C   0  0  0  0  0  0  0  0  0  0  0  0
   -2.0699    0.5682    0.2891 C   0  0  0  0  0  0  0  0  0  0  0  0
   -0.7978    0.3049    1.0902 C   0  0  0  0  0  0  0  0  0  0  0  0
    0.3583    0.6985    0.3367 O   0  0  0  0  0  0  0  0  0  0  0  0
    1.2133   -0.2270   -0.0794 C   0  0  0  0  0  0  0  0  0  0  0  0
    1.1005   -1.4117    0.1628 O   0  0  0  0  0  0  0  0  0  0  0  0
    2.3327    0.3790   -0.8729 C   0  0  0  0  0  0  0  0  0  0  0  0
   -3.1037   -0.1445   -1.4657 H   0  0  0  0  0  0  0  0  0  0  0  0
   -1.3468   -0.1536   -1.6167 H   0  0  0  0  0  0  0  0  0  0  0  0
   -2.1491   -1.3816   -0.6403 H   0  0  0  0  0  0  0  0  0  0  0  0
   -2.9195    0.3971    0.9501 H   0  0  0  0  0  0  0  0  0  0  0  0
   -2.0764    1.6137   -0.0215 H   0  0  0  0  0  0  0  0  0  0  0  0
   -0.7816    0.9080    2.0006 H   0  0  0  0  0  0  0  0  0  0  0  0
   -0.7049   -0.7559    1.3430 H   0  0  0  0  0  0  0  0  0  0  0  0
    3.2761    0.1484   -0.3849 H   0  0  0  0  0  0  0  0  0  0  0  0
    2.1957    1.4521   -0.9475 H   0  0  0  0  0  0  0  0  0  0  0  0
    2.3507   -0.0735   -1.8611 H   0  0  0  0  0  0  0  0  0  0  0  0
  1  2  1  0  0  0  0
  2  3  1  0  0  0  0
  3  4  1  0  0  0  0
  4  5  1  0  0  0  0
  5  6  2  0  0  0  0
  5  7  1  0  0  0  0
  1  8  1  0  0  0  0
  1  9  1  0  0  0  0
  1 10  1  0  0  0  0
  2 11  1  0  0  0  0
  2 12  1  0  0  0  0
  3 13  1  0  0  0  0
  3 14  1  0  0  0  0
  7 15  1  0  0  0  0
  7 16  1  0  0  0  0
  7 17  1  0  0  0  0
M  END
