 xtb: 6.7.1 (edcfbbe)
          04112511493D

 21 20  0     0  0            999 V2000
    1.9051   -0.9825    0.5795 C   0  0  0  0  0  0  0  0  0  0  0  0
    1.1842    0.3426    0.3400 C   0  0  0  0  0  0  0  0  0  0  0  0
    0.8452    0.7503    1.3054 H   0  0  0  0  0  0  0  0  0  0  0  0
   -0.0167    0.1894   -0.5998 C   0  0  0  0  0  0  0  0  0  0  0  0
   -1.2425   -0.4993    0.0082 C   0  0  0  0  0  0  0  0  0  0  0  0
   -1.9419    0.3909    1.0335 C   0  0  0  0  0  0  0  0  0  0  0  0
   -2.2214   -0.8718   -1.1049 C   0  0  0  0  0  0  0  0  0  0  0  0
    2.0484    1.2912   -0.2732 O   0  0  0  0  0  0  0  0  0  0  0  0
    1.2242   -1.7078    1.0135 H   0  0  0  0  0  0  0  0  0  0  0  0
    2.2825   -1.3712   -0.3635 H   0  0  0  0  0  0  0  0  0  0  0  0
    2.7407   -0.8453    1.2626 H   0  0  0  0  0  0  0  0  0  0  0  0
   -0.2946    1.1907   -0.9369 H   0  0  0  0  0  0  0  0  0  0  0  0
    0.3190   -0.3669   -1.4775 H   0  0  0  0  0  0  0  0  0  0  0  0
   -0.9238   -1.4211    0.5057 H   0  0  0  0  0  0  0  0  0  0  0  0
   -2.8186   -0.1131    1.4332 H   0  0  0  0  0  0  0  0  0  0  0  0
   -2.2618    1.3206    0.5683 H   0  0  0  0  0  0  0  0  0  0  0  0
   -1.2825    0.6311    1.8630 H   0  0  0  0  0  0  0  0  0  0  0  0
   -3.0984   -1.3639   -0.6914 H   0  0  0  0  0  0  0  0  0  0  0  0
   -2.5455    0.0206   -1.6357 H   0  0  0  0  0  0  0  0  0  0  0  0
   -1.7542   -1.5455   -1.8191 H   0  0  0  0  0  0  0  0  0  0  0  0
    2.8554    1.3726    0.2526 H   0  0  0  0  0  0  0  0  0  0  0  0
  1  2  1  0  0  0  0
  2  3  1  0  0  0  0
  2  4  1  0  0  0  0
  4  5  1  0  0  0  0
  5  6  1  0  0  0  0
  5  7  1  0  0  0  0
  2  8  1  0  0  0  0
  1  9  1  0  0  0  0
  1 10  1  0  0  0  0
  1 11  1  0  0  0  0
  4 12  1  0  0  0  0
  4 13  1  0  0  0  0
  5 14  1  0  0  0  0
  6 15  1  0  0  0  0
  6 16  1  0  0  0  0
  6 17  1  0  0  0  0
  7 18  1  0  0  0  0
  7 19  1  0  0  0  0
  7 20  1  0  0  0  0
  8 21  1  0  0  0  0
M  END
