 xtb: 6.7.1 (edcfbbe)
          04112512233D

 20 19  0     0  0            999 V2000
   -2.3222    0.9081    0.7517 C   0  0  0  0  0  0  0  0  0  0  0  0
   -1.7311   -0.4201    0.2860 C   0  0  0  0  0  0  0  0  0  0  0  0
   -2.7546   -1.2279   -0.5073 C   0  0  0  0  0  0  0  0  0  0  0  0
   -0.4904   -0.1770   -0.5730 C   0  0  0  0  0  0  0  0  0  0  0  0
    0.5356    0.4112    0.2375 O   0  0  0  0  0  0  0  0  0  0  0  0
    1.8039    0.1589   -0.0579 C   0  0  0  0  0  0  0  0  0  0  0  0
    2.1490   -0.5453   -0.9856 O   0  0  0  0  0  0  0  0  0  0  0  0
    2.7390    0.8571    0.8832 C   0  0  0  0  0  0  0  0  0  0  0  0
   -2.6770    1.4816   -0.1014 H   0  0  0  0  0  0  0  0  0  0  0  0
   -1.5687    1.4913    1.2737 H   0  0  0  0  0  0  0  0  0  0  0  0
   -3.1578    0.7338    1.4238 H   0  0  0  0  0  0  0  0  0  0  0  0
   -1.4193   -0.9959    1.1634 H   0  0  0  0  0  0  0  0  0  0  0  0
   -2.3408   -2.1871   -0.8079 H   0  0  0  0  0  0  0  0  0  0  0  0
   -3.0529   -0.6856   -1.4011 H   0  0  0  0  0  0  0  0  0  0  0  0
   -3.6376   -1.4068    0.0993 H   0  0  0  0  0  0  0  0  0  0  0  0
   -0.1057   -1.1101   -0.9980 H   0  0  0  0  0  0  0  0  0  0  0  0
   -0.7139    0.5138   -1.3924 H   0  0  0  0  0  0  0  0  0  0  0  0
    2.9541    1.8452    0.4816 H   0  0  0  0  0  0  0  0  0  0  0  0
    3.6682    0.3007    0.9525 H   0  0  0  0  0  0  0  0  0  0  0  0
    2.2716    0.9685    1.8557 H   0  0  0  0  0  0  0  0  0  0  0  0
  1  2  1  0  0  0  0
  2  3  1  0  0  0  0
  2  4  1  0  0  0  0
  4  5  1  0  0  0  0
  5  6  1  0  0  0  0
  6  7  2  0  0  0  0
  6  8  1  0  0  0  0
  1  9  1  0  0  0  0
  1 10  1  0  0  0  0
  1 11  1  0  0  0  0
  2 12  1  0  0  0  0
  3 13  1  0  0  0  0
  3 14  1  0  0  0  0
  3 15  1  0  0  0  0
  4 16  1  0  0  0  0
  4 17  1  0  0  0  0
  8 18  1  0  0  0  0
  8 19  1  0  0  0  0
  8 20  1  0  0  0  0
M  END
