21
 xtb: 6.7.1 (edcfbbe)
C            2.72093623366679       -0.34290128916173        0.25748876308291
C            1.33823948280734       -0.70858495399264       -0.27555755038431
C            0.23386626082160        0.22175718181156        0.22171092815414
H            0.20742422679120        0.19136269008138        1.32058883095228
C           -1.16411290130584       -0.13440458821728       -0.31030295474596
C           -1.54286788756217       -1.58228475725966        0.01266373106850
C           -2.21963640037052        0.81765373849148        0.25611506486625
O            0.55754786639453        1.59673004043969       -0.09362479454880
H            3.46719461844584       -1.07549352626350       -0.06576808643913
H            2.72301120238517       -0.32524200977232        1.35340085733928
H            3.04524437609531        0.64033255768728       -0.09472503825074
H            1.33788952252315       -0.69786033072149       -1.37509302126555
H            1.09795684781660       -1.73171212065443        0.03068628922507
H           -1.13287648301705       -0.01581528393125       -1.40450989449190
H           -2.58731982258187       -1.76758999352436       -0.25843919815573
H           -0.92822372217969       -2.30627063283255       -0.52865607191580
H           -1.43766141514075       -1.77967173184471        1.08672436268466
H           -2.26100846911731        0.73526546151569        1.34948436354183
H           -3.21130736698312        0.56853275903951       -0.13567812821859
H           -2.00964662733302        1.85993381992307        0.00229107523849
H            0.60331611138387        1.65809035985071       -1.05818970842075
