18
 xtb: 6.7.1 (edcfbbe)
C           -2.53149152624497        0.57495398535046        0.11051431692535
C           -1.15080003427806        0.75983815696206       -0.51457659430732
C           -0.02583866571542        0.01953508398720        0.22204696516006
H            0.01362849730491        0.40008725385337        1.25492039726369
C           -0.25212505026134       -1.49106505168044        0.25982181312959
C            1.30618713212507        0.36033434173430       -0.44276592107556
O            2.44788882759778       -0.18204465369998        0.24780694385284
H           -3.27509549634507        1.19669425742081       -0.39864177858439
H           -2.87164069953980       -0.46307691623371        0.04581138808389
H           -2.52367067899584        0.86078214650052        1.16873191398690
H           -0.90847390167167        1.83010142361674       -0.53826981472254
H           -1.17177027185944        0.42066518010232       -1.55974492965986
H            0.59578361803916       -2.00554633051571        0.72140306192183
H           -0.37590971313709       -1.88376628926719       -0.75712414854087
H           -1.14567661916743       -1.75161790324608        0.83389284454174
H            1.40930184425566        1.45180325695673       -0.53160107838108
H            1.33985400182493       -0.06645488868553       -1.45234802258162
H            2.44584410000410        0.19597075118131        1.13689492721672
