27
CONF2
C -2.6894776131 -1.2133885095 -2.0224458175
C -3.4865596654 -0.9177437876 -0.7560947010
C -2.6203172013 -0.8821054780 0.5071472922
H -2.2031584473 -1.8805706876 0.6433461240
C -3.3938319330 -0.5207711512 1.7692663129
N -1.4074571505 -0.0236584850 0.3275612391
C -0.1454010781 -0.6687233020 0.2927095133
O -0.0524315122 -1.8833438232 0.4698236624
C 0.9790177296 0.2014324212 0.0538566604
C 0.8378167696 1.5390622348 -0.1561258903
N -0.4281260744 2.0476444638 -0.1383796622
C -1.5840744445 1.3229958928 0.0776259493
O -2.6798364159 1.8813748009 0.0473014212
C 1.9491067236 2.4963970598 -0.4000686759
Br 2.6981547174 -0.5967014299 0.0365675169
H -3.3581838256 -1.3392400299 -2.8790853501
H -1.9973412979 -0.3978691553 -2.2617317057
H -2.1020510905 -2.1319008608 -1.9137110368
H -4.0454970791 0.0158611094 -0.8654477103
H -4.2244543600 -1.7112667293 -0.5892117692
H -4.1706223455 -1.2763584787 1.9220679511
H -2.7399993459 -0.5302372833 2.6462621289
H -3.8762853456 0.4555474270 1.6969440958
H -0.5638514942 3.0372918600 -0.3058605548
H 2.6321281484 2.5025031858 0.4549597256
H 1.5717185821 3.5079914965 -0.5577095923
H 2.5269715018 2.1912515029 -1.2771130826
27
CONF4
C -2.9453928950 -0.6031422204 2.0303468754
C -3.0351021099 -1.4279955871 0.7506573410
C -2.7198428137 -0.6228138854 -0.5142787901
H -3.4742399903 0.1607426036 -0.5975018844
C -2.7689292619 -1.4508364387 -1.7925895334
N -1.4382899570 0.1416792691 -0.3786822773
C -0.2251969374 -0.5648601893 -0.2399577217
O -0.2074207943 -1.7939160918 -0.2792003360
C 0.9480961038 0.2579529538 -0.0578311568
C 0.8814567273 1.6129060796 0.0421492056
N -0.3533086038 2.1893412859 -0.0563386971
C -1.5415835683 1.5191141403 -0.2506539560
O -2.6015778777 2.1434216945 -0.3130042938
C 2.0359958779 2.5221326199 0.2705924591
Br 2.6114002139 -0.6380995406 0.0868300428
H -3.2689151105 -1.1938808772 2.8929117085
H -1.9182326532 -0.2736726878 2.2244999074
H -3.5805039863 0.2880419287 1.9741840578
H -2.3845601366 -2.3046637837 0.8170780830
H -4.0584315382 -1.8000496908 0.6204553790
H -3.7948363065 -1.8083354876 -1.9258495812
H -2.5118412406 -0.8430858535 -2.6649264643
H -2.1068951997 -2.3166728575 -1.7552907250
H -0.4344626750 3.1956973449 0.0243754710
H 1.7397423076 3.5691050956 0.1853345580
H 2.8322201627 2.3157522416 -0.4487620799
H 2.4475498731 2.3550806065 1.2716843835
27
CONF1
C -2.7068803808 -1.2348527452 -2.0226733579
C -3.4859190831 -0.9033421930 -0.7540551955
C -2.6111037714 -0.8705610461 0.5030366997
H -2.1958019888 -1.8700013990 0.6382718432
C -3.3763443550 -0.5063761948 1.7698798216
N -1.3976257397 -0.0149063359 0.3141459387
C -0.1421695654 -0.6637600338 0.2380339735
O -0.0536402237 -1.8836552763 0.3715384786
C 0.9924649876 0.2062231554 0.0190661923
C 0.8548273114 1.5486230659 -0.1527335819
N -0.4133017475 2.0593831722 -0.1127034737
C -1.5702223095 1.3382017291 0.0920263824
O -2.6643500332 1.9003414006 0.0798444520
C 1.9306736497 2.5458633691 -0.3843934568
Br 2.6929014208 -0.6362706589 -0.0302815266
H -2.1711672660 -2.1850172970 -1.9216202624
H -3.3826841692 -1.3175455395 -2.8790440800
H -1.9719509807 -0.4564074534 -2.2577395198
H -4.0214455624 0.0429855756 -0.8714135727
H -4.2427278169 -1.6754952309 -0.5721182848
H -3.8779615672 0.4594893262 1.6911596758
H -4.1366271537 -1.2744593120 1.9414705607
H -2.7125220267 -0.4923648739 2.6392589802
H -0.5434370022 3.0538791790 -0.2563191354
H 1.7602475796 3.0552280884 -1.3391472559
H 2.9149886056 2.0840954355 -0.3975362452
H 1.9002487250 3.3046386799 0.4051183172
27
CONF6
C -4.3238128503 -1.9481009987 -1.3250923910
C -3.3001871706 -0.8198513320 -1.2175269478
C -2.5041817964 -0.9035559685 0.0897337802
H -2.0730507019 -1.9043857946 0.1407766155
C -3.3258884472 -0.6860230022 1.3567466356
N -1.3044591471 -0.0091369617 0.0577685544
C -0.0289184326 -0.6200468045 0.1618680987
O 0.0771125617 -1.8409212046 0.2799286644
C 1.0888228460 0.2897600012 0.1141625198
C 0.9313907884 1.6364980656 -0.0082041235
N -0.3434036490 2.1166970979 -0.0811317775
C -1.4955184096 1.3552919019 -0.0402796499
O -2.5980861698 1.8981570684 -0.0926583756
C 2.0334259522 2.6333118272 -0.0660787860
Br 2.8247203363 -0.4630527368 0.2319426227
H -5.1040406415 -1.8611609561 -0.5631346798
H -4.8136444061 -1.9219322887 -2.3030245711
H -3.8474181168 -2.9284949673 -1.2131740783
H -2.5942709094 -0.8910385312 -2.0534435339
H -3.8053047897 0.1459930458 -1.2973606034
H -3.8800066365 0.2545817158 1.3363587872
H -4.0416571279 -1.5056097768 1.4612767924
H -2.6795663774 -0.6992253598 2.2394334749
H -0.4896521012 3.1159240416 -0.1594648868
H 2.6224665118 2.5978373591 0.8549927820
H 1.6437887912 3.6438522577 -0.1968944772
H 2.7079767328 2.4017768193 -0.8947637484
27
CONF8
C -4.3918514840 -1.8815652549 0.7433725867
C -2.9902392712 -1.2819124183 0.8214704443
C -2.6292163728 -0.5071942622 -0.4492674852
H -3.3646519939 0.2901366131 -0.5698265328
C -2.6458786584 -1.3406400962 -1.7282976016
N -1.3411732102 0.2326713389 -0.2550903169
C -0.1215996605 -0.4760382153 -0.2604188410
O -0.1057064203 -1.6969737967 -0.4069802945
C 1.0584253978 0.3398345879 -0.0908250835
C 0.9939254546 1.6786035711 0.1433396318
N -0.2465906696 2.2476406034 0.2029636196
C -1.4430882162 1.5840074249 0.0384659128
O -2.5105127069 2.1891595949 0.1452051616
C 2.1616967840 2.5754544392 0.3544362082
Br 2.7333478097 -0.5435043917 -0.1585179564
H -4.4555635749 -2.6630566854 -0.0196327421
H -4.6672729450 -2.3313576738 1.7020213196
H -5.1366333914 -1.1136601955 0.5056141788
H -2.9350306951 -0.5886257330 1.6694601432
H -2.2532994626 -2.0726382412 0.9954298189
H -2.1759509366 -2.3164125744 -1.6014530741
H -3.6871104738 -1.4947902234 -2.0251327140
H -2.1471172862 -0.8125415835 -2.5459275691
H -0.3244157795 3.2379614136 0.4005554229
H 1.8476788643 3.6130725428 0.4802015599
H 2.8454566277 2.5112596740 -0.4968792785
H 2.7182725209 2.2648874792 1.2444160084
27
CONF3
C -2.9744019309 -0.6230924764 2.0335502753
C -3.0424033714 -1.4326380398 0.7430051817
C -2.7129329069 -0.6112581273 -0.5074006535
H -3.4653324580 0.1745790045 -0.5880603104
C -2.7489014137 -1.4217891693 -1.7973872600
N -1.4313539739 0.1495685989 -0.3531368369
C -0.2211644133 -0.5579188364 -0.2184865732
O -0.2055774508 -1.7866344989 -0.2565941654
C 0.9626405212 0.2602984823 -0.0481156826
C 0.8993009742 1.6149448396 0.0447806015
N -0.3395489237 2.1920608070 -0.0409627337
C -1.5303473473 1.5279878005 -0.2228342786
O -2.5906546602 2.1526374737 -0.2742441200
C 2.0258633467 2.5635766667 0.2360407147
Br 2.6118796148 -0.6715084894 0.0605661887
H -3.6216564871 0.2595247544 1.9835699119
H -3.2965617838 -1.2294793336 2.8856469900
H -1.9534633409 -0.2819001225 2.2402259082
H -2.3900375569 -2.3078644426 0.8079482039
H -4.0623669186 -1.8066277186 0.5937797190
H -3.7711167928 -1.7852671354 -1.9414182628
H -2.4918138071 -0.7991487485 -2.6593157060
H -2.0801566146 -2.2829353993 -1.7688308061
H -0.4139080076 3.1992675230 0.0413029315
H 2.0573170719 3.2690047079 -0.6015404731
H 2.9809306013 2.0478397143 0.3031609544
H 1.8663628453 3.1435656954 1.1515792539
27
CONF12
C -3.7113522797 -0.5213080775 -1.7686787721
C -3.0851247832 -1.5675974204 -0.8518460635
C -2.5063352672 -1.0547714198 0.4731963306
H -2.0091812949 -1.9027660048 0.9476371715
C -3.5553529634 -0.5550536476 1.4612243078
N -1.3743780942 -0.0988790803 0.2361720962
C -0.0963008495 -0.6907380884 0.0619124374
O 0.0314387690 -1.9149377702 0.0817594551
C 0.9924066200 0.2358909396 -0.1190061417
C 0.8019280104 1.5825859418 -0.1682620658
N -0.4768007171 2.0398418056 -0.0417928321
C -1.6062075798 1.2587962747 0.1210845428
O -2.7146710735 1.7883269539 0.1659847398
C 1.8684986359 2.6006253383 -0.3622978490
Br 2.7295043538 -0.4953997707 -0.3184696583
H -4.1203998356 -1.0092431335 -2.6591380993
H -4.5274987978 0.0192404218 -1.2806936324
H -2.9717860160 0.2115348329 -2.1072031308
H -3.8350234462 -2.3223123148 -0.5845305135
H -2.2906811363 -2.0943093703 -1.3928963711
H -4.0824025202 -1.4363927688 1.8402355930
H -3.0923829855 -0.0515203899 2.3146137000
H -4.2881255632 0.1162105030 1.0160012299
H -0.6503210409 3.0353347367 -0.1100875926
H 2.3482101324 2.4606597195 -1.3363593969
H 2.6423621291 2.4890009503 0.4026154804
H 1.4607329678 3.6116822128 -0.3116685767
