  13
 
 C          0.6664769916       -1.4097881538       -0.0245197063
 C          0.5177929986        0.0818829182       -0.0260534735
 C          1.5774919099        0.8880617117       -0.0728294821
 C         -0.8258014698        0.6432848675        0.0252693917
 C         -1.9568484059       -0.0490863553        0.0949795606
 H          0.2261957412       -1.8336024606        0.8764746063
 H          1.7158077446       -1.6900648557       -0.0632999508
 H          0.1575167172       -1.8409201482       -0.8848176711
 H          1.4752352758        1.9603331860       -0.0751756163
 H          2.5836208411        0.5061400910       -0.1110905611
 H         -0.8681206999        1.7252014932        0.0062750363
 H         -2.9136494614        0.4433555209        0.1304177831
 H         -1.9791078247       -1.1247947798        0.1197815483
          13
        -14.72224611
 C          0.6439453289        1.4191924254        0.0002677944
 C          0.5174103289       -0.0748584924        0.0001520675
 C          1.5899076739       -0.8654392868       -0.0005733018
 C         -0.8188843518       -0.6554515675        0.0008646960
 C         -1.9618371470        0.0205847788       -0.0006946049
 H          0.1632217154        1.8392507872        0.8826176735
 H          0.1614448689        1.8397230417       -0.8808703050
 H          1.6896466011        1.7149928424       -0.0006972142
 H          1.5036362460       -1.9391887150       -0.0006600633
 H          2.5909177150       -0.4686429922       -0.0007720420
 H         -0.8444587811       -1.7381963527        0.0023979145
 H         -2.9123538695       -0.4856426438        0.0000186906
 H         -2.0010057348        1.0964017240       -0.0022330839
