 xtb: 6.7.1 (edcfbbe)
          04112511323D

 21 20  0     0  0            999 V2000
   -2.2150    1.0582    0.3575 C   0  0  0  0  0  0  0  0  0  0  0  0
   -1.8207   -0.3774    0.0330 C   0  0  0  0  0  0  0  0  0  0  0  0
   -0.5440   -0.5221   -0.7999 C   0  0  0  0  0  0  0  0  0  0  0  0
    0.7782   -0.1426   -0.0929 C   0  0  0  0  0  0  0  0  0  0  0  0
    1.1228    1.3397   -0.2942 C   0  0  0  0  0  0  0  0  0  0  0  0
    1.9162   -0.9924   -0.6804 C   0  0  0  0  0  0  0  0  0  0  0  0
    0.6292   -0.4344    1.2922 O   0  0  0  0  0  0  0  0  0  0  0  0
   -1.5328    1.4881    1.0854 H   0  0  0  0  0  0  0  0  0  0  0  0
   -3.2155    1.0797    0.7842 H   0  0  0  0  0  0  0  0  0  0  0  0
   -2.2113    1.6719   -0.5408 H   0  0  0  0  0  0  0  0  0  0  0  0
   -1.6967   -0.9341    0.9625 H   0  0  0  0  0  0  0  0  0  0  0  0
   -2.6306   -0.8444   -0.5331 H   0  0  0  0  0  0  0  0  0  0  0  0
   -0.4746   -1.5713   -1.0945 H   0  0  0  0  0  0  0  0  0  0  0  0
   -0.6322    0.0745   -1.7090 H   0  0  0  0  0  0  0  0  0  0  0  0
    2.0664    1.5748    0.1952 H   0  0  0  0  0  0  0  0  0  0  0  0
    0.3506    1.9775    0.1225 H   0  0  0  0  0  0  0  0  0  0  0  0
    1.2228    1.5561   -1.3539 H   0  0  0  0  0  0  0  0  0  0  0  0
    1.9487   -0.8778   -1.7599 H   0  0  0  0  0  0  0  0  0  0  0  0
    1.7555   -2.0415   -0.4422 H   0  0  0  0  0  0  0  0  0  0  0  0
    2.8759   -0.6852   -0.2694 H   0  0  0  0  0  0  0  0  0  0  0  0
    1.4644   -0.2447    1.7394 H   0  0  0  0  0  0  0  0  0  0  0  0
  1  2  1  0  0  0  0
  2  3  1  0  0  0  0
  3  4  1  0  0  0  0
  4  5  1  0  0  0  0
  4  6  1  0  0  0  0
  4  7  1  0  0  0  0
  1  8  1  0  0  0  0
  1  9  1  0  0  0  0
  1 10  1  0  0  0  0
  2 11  1  0  0  0  0
  2 12  1  0  0  0  0
  3 13  1  0  0  0  0
  3 14  1  0  0  0  0
  5 15  1  0  0  0  0
  5 16  1  0  0  0  0
  5 17  1  0  0  0  0
  6 18  1  0  0  0  0
  6 19  1  0  0  0  0
  6 20  1  0  0  0  0
  7 21  1  0  0  0  0
M  END
