 xtb: 6.7.1 (edcfbbe)
          04112511193D

 14 13  0     0  0            999 V2000
   -1.3596   -0.4410   -0.3333 C   0  0  0  0  0  0  0  0  0  0  0  0
    0.0077   -0.0624    0.2510 C   0  0  0  0  0  0  0  0  0  0  0  0
    1.1384   -0.8017   -0.4845 C   0  0  0  0  0  0  0  0  0  0  0  0
    2.3913   -0.5310    0.0962 O   0  0  0  0  0  0  0  0  0  0  0  0
    0.2350    1.3316    0.2151 O   0  0  0  0  0  0  0  0  0  0  0  0
   -2.4156    0.3153    0.2061 O   0  0  0  0  0  0  0  0  0  0  0  0
   -1.5276   -1.5153   -0.1871 H   0  0  0  0  0  0  0  0  0  0  0  0
   -1.3717   -0.2309   -1.4065 H   0  0  0  0  0  0  0  0  0  0  0  0
    0.0526   -0.3272    1.3141 H   0  0  0  0  0  0  0  0  0  0  0  0
    1.1412   -0.5073   -1.5438 H   0  0  0  0  0  0  0  0  0  0  0  0
    0.9921   -1.8807   -0.4182 H   0  0  0  0  0  0  0  0  0  0  0  0
    2.4502    0.4263    0.2435 H   0  0  0  0  0  0  0  0  0  0  0  0
   -0.0849    1.6875   -0.6260 H   0  0  0  0  0  0  0  0  0  0  0  0
   -2.4530    0.1856    1.1638 H   0  0  0  0  0  0  0  0  0  0  0  0
  1  2  1  0  0  0  0
  2  3  1  0  0  0  0
  3  4  1  0  0  0  0
  2  5  1  0  0  0  0
  1  6  1  0  0  0  0
  1  7  1  0  0  0  0
  1  8  1  0  0  0  0
  2  9  1  0  0  0  0
  3 10  1  0  0  0  0
  3 11  1  0  0  0  0
  4 12  1  0  0  0  0
  5 13  1  0  0  0  0
  6 14  1  0  0  0  0
M  END
