 xtb: 6.7.1 (edcfbbe)
          04112512403D

 18 17  0     0  0            999 V2000
   -2.3825    0.7589    0.0693 C   0  0  0  0  0  0  0  0  0  0  0  0
   -0.8766    0.8486   -0.1529 C   0  0  0  0  0  0  0  0  0  0  0  0
   -0.1095   -0.3190    0.4829 C   0  0  0  0  0  0  0  0  0  0  0  0
   -0.4981   -0.4787    1.4943 H   0  0  0  0  0  0  0  0  0  0  0  0
   -0.2653   -1.6069   -0.3225 C   0  0  0  0  0  0  0  0  0  0  0  0
    1.3827    0.0208    0.6363 C   0  0  0  0  0  0  0  0  0  0  0  0
    2.0552    0.2306   -0.5865 O   0  0  0  0  0  0  0  0  0  0  0  0
   -2.8779    1.6215   -0.3697 H   0  0  0  0  0  0  0  0  0  0  0  0
   -2.7938   -0.1369   -0.3881 H   0  0  0  0  0  0  0  0  0  0  0  0
   -2.6096    0.7367    1.1328 H   0  0  0  0  0  0  0  0  0  0  0  0
   -0.5197    1.7855    0.2831 H   0  0  0  0  0  0  0  0  0  0  0  0
   -0.6771    0.8723   -1.2261 H   0  0  0  0  0  0  0  0  0  0  0  0
    0.2214   -1.5004   -1.2896 H   0  0  0  0  0  0  0  0  0  0  0  0
   -1.3132   -1.8440   -0.4803 H   0  0  0  0  0  0  0  0  0  0  0  0
    0.2001   -2.4378    0.2023 H   0  0  0  0  0  0  0  0  0  0  0  0
    1.9029   -0.8178    1.1061 H   0  0  0  0  0  0  0  0  0  0  0  0
    1.4961    0.9015    1.2843 H   0  0  0  0  0  0  0  0  0  0  0  0
    1.6763    1.0063   -1.0213 H   0  0  0  0  0  0  0  0  0  0  0  0
  1  2  1  0  0  0  0
  2  3  1  0  0  0  0
  3  4  1  0  0  0  0
  3  5  1  0  0  0  0
  3  6  1  0  0  0  0
  6  7  1  0  0  0  0
  1  8  1  0  0  0  0
  1  9  1  0  0  0  0
  1 10  1  0  0  0  0
  2 11  1  0  0  0  0
  2 12  1  0  0  0  0
  5 13  1  0  0  0  0
  5 14  1  0  0  0  0
  5 15  1  0  0  0  0
  6 16  1  0  0  0  0
  6 17  1  0  0  0  0
  7 18  1  0  0  0  0
M  END
