 xtb: 6.7.1 (edcfbbe)
          04112512233D

 20 19  0     0  0            999 V2000
   -2.3975   -0.6295   -1.0051 C   0  0  0  0  0  0  0  0  0  0  0  0
   -1.8436    0.2663    0.1005 C   0  0  0  0  0  0  0  0  0  0  0  0
   -1.5450   -0.5412    1.3620 C   0  0  0  0  0  0  0  0  0  0  0  0
   -0.5907    1.0057   -0.3833 C   0  0  0  0  0  0  0  0  0  0  0  0
    0.4616    0.0893   -0.7076 O   0  0  0  0  0  0  0  0  0  0  0  0
    1.5484    0.0558    0.0536 C   0  0  0  0  0  0  0  0  0  0  0  0
    1.7235    0.7719    1.0182 O   0  0  0  0  0  0  0  0  0  0  0  0
    2.5321   -0.9603   -0.4473 C   0  0  0  0  0  0  0  0  0  0  0  0
   -3.2757   -1.1626   -0.6517 H   0  0  0  0  0  0  0  0  0  0  0  0
   -1.6472   -1.3550   -1.3086 H   0  0  0  0  0  0  0  0  0  0  0  0
   -2.6763   -0.0371   -1.8725 H   0  0  0  0  0  0  0  0  0  0  0  0
   -2.5816    1.0375    0.3422 H   0  0  0  0  0  0  0  0  0  0  0  0
   -1.0991    0.0911    2.1273 H   0  0  0  0  0  0  0  0  0  0  0  0
   -0.8509   -1.3498    1.1411 H   0  0  0  0  0  0  0  0  0  0  0  0
   -2.4597   -0.9739    1.7577 H   0  0  0  0  0  0  0  0  0  0  0  0
   -0.8034    1.5555   -1.3030 H   0  0  0  0  0  0  0  0  0  0  0  0
   -0.2272    1.6943    0.3859 H   0  0  0  0  0  0  0  0  0  0  0  0
    2.0271   -1.9057   -0.6207 H   0  0  0  0  0  0  0  0  0  0  0  0
    3.3333   -1.0784    0.2745 H   0  0  0  0  0  0  0  0  0  0  0  0
    2.9387   -0.6149   -1.3946 H   0  0  0  0  0  0  0  0  0  0  0  0
  1  2  1  0  0  0  0
  2  3  1  0  0  0  0
  2  4  1  0  0  0  0
  4  5  1  0  0  0  0
  5  6  1  0  0  0  0
  6  7  2  0  0  0  0
  6  8  1  0  0  0  0
  1  9  1  0  0  0  0
  1 10  1  0  0  0  0
  1 11  1  0  0  0  0
  2 12  1  0  0  0  0
  3 13  1  0  0  0  0
  3 14  1  0  0  0  0
  3 15  1  0  0  0  0
  4 16  1  0  0  0  0
  4 17  1  0  0  0  0
  8 18  1  0  0  0  0
  8 19  1  0  0  0  0
  8 20  1  0  0  0  0
M  END
