  12
 
 C         -0.3066865482       -1.3627903049        0.0003278479
 C          1.0118132485       -0.9331692720        0.0003926118
 C          1.3330936948        0.4158226945        0.0002357652
 C          0.3017813462        1.3428689531        0.0001033097
 C         -1.0271177555        0.9465861112        0.0001063994
 C         -1.3143216939       -0.4100682897        0.0001779988
 Cl        -2.9566389306       -0.9224353076        0.0003006292
 Cl         0.6792645447        3.0213235592        0.0000172880
 Cl         2.2766447511       -2.0993168738        0.0003628093
 H         -0.5431281396       -2.4141189932        0.0003955475
 H          2.3617835133        0.7367294644        0.0001912415
 H         -1.8193846044        1.6770117594        0.0000995958
          12
        -28.03104070
 C         -0.9272408012        1.0440753932        0.0000532296
 C          0.4343040935        1.3062307208        0.0001574160
 C          1.3678366037        0.2810222148        0.0001987540
 C          0.9140902369       -1.0292097358        0.0002669267
 C         -0.4405309726       -1.3250723345        0.0000977191
 C         -1.3483372233       -0.2770089126       -0.0000335759
 Cl        -3.0336788860       -0.6232430534       -0.0000480459
 Cl         2.0565681700       -2.3155763257       -0.0001146128
 Cl         0.9770672665        2.9388126099       -0.0000925309
 H         -1.6428983027        1.8496876659        0.0000818479
 H          2.4234402675        0.4977765878        0.0000415848
 H         -0.7804667301       -2.3476711906        0.0000288242
