  12
 
 C          1.8850000000       -1.0360000000       -0.1120000000
 C          2.9210000000       -1.6310000000        0.6080000000
 C          2.8780000000       -1.6520000000        2.0020000000
 C          1.8000000000       -1.0790000000        2.6760000000
 C          0.7640000000       -0.4840000000        1.9550000000
 C          0.8070000000       -0.4630000000        0.5610000000
 Cl        -0.4710000000        0.2710000000       -0.3280000000
 Cl         1.7470000000       -1.1050000000        4.3960000000
 Cl         4.2530000000       -2.3380000000       -0.2220000000
 H          1.9180000000       -1.0200000000       -1.2000000000
 H          3.6860000000       -2.1160000000        2.5640000000
 H         -0.0780000000       -0.0370000000        2.4800000000
