 24

C      2.634000    -1.692000    -5.563000
C      2.088000    -1.496000    -4.158000
C      0.591000    -1.193000    -4.177000
C      0.045000    -0.998000    -2.773000
C      0.637000     0.213000    -2.060000
C     -0.340000     0.488000    -0.921000
C     -1.680000    -0.106000    -1.357000
C     -1.449000    -0.693000    -2.746000
H      3.707000    -1.908000    -5.540000
H      2.127000    -2.519000    -6.069000
H      2.483000    -0.785000    -6.158000
H      2.277000    -2.401000    -3.569000
H      2.628000    -0.675000    -3.672000
H      0.402000    -0.288000    -4.765000
H      0.051000    -2.014000    -4.662000
H      0.242000    -1.901000    -2.181000
H      1.652000     0.027000    -1.694000
H      0.676000     1.081000    -2.730000
H      0.001000     0.001000     0.000000
H     -0.417000     1.560000    -0.714000
H     -1.982000    -0.893000    -0.657000
H     -2.475000     0.646000    -1.369000
H     -2.061000    -1.583000    -2.921000
H     -1.711000     0.050000    -3.510000
