  24
 
 C          2.6340000000       -1.6920000000       -5.5630000000
 C          2.0880000000       -1.4960000000       -4.1580000000
 C          0.5910000000       -1.1930000000       -4.1770000000
 C          0.0450000000       -0.9980000000       -2.7730000000
 C          0.6370000000        0.2130000000       -2.0600000000
 C         -0.3400000000        0.4880000000       -0.9210000000
 C         -1.6800000000       -0.1060000000       -1.3570000000
 C         -1.4490000000       -0.6930000000       -2.7460000000
 H          3.7070000000       -1.9080000000       -5.5400000000
 H          2.1270000000       -2.5190000000       -6.0690000000
 H          2.4830000000       -0.7850000000       -6.1580000000
 H          2.2770000000       -2.4010000000       -3.5690000000
 H          2.6280000000       -0.6750000000       -3.6720000000
 H          0.4020000000       -0.2880000000       -4.7650000000
 H          0.0510000000       -2.0140000000       -4.6620000000
 H          0.2420000000       -1.9010000000       -2.1810000000
 H          1.6520000000        0.0270000000       -1.6940000000
 H          0.6760000000        1.0810000000       -2.7300000000
 H          0.0010000000        0.0010000000        0.0000000000
 H         -0.4170000000        1.5600000000       -0.7140000000
 H         -1.9820000000       -0.8930000000       -0.6570000000
 H         -2.4750000000        0.6460000000       -1.3690000000
 H         -2.0610000000       -1.5830000000       -2.9210000000
 H         -1.7110000000        0.0500000000       -3.5100000000
