29
 xtb: 6.7.1 (edcfbbe)
C           -2.97144550475728       -1.10287458995220       -0.59851187950472
C           -1.75434590961874       -0.46885236687393        0.07873218290130
C           -2.20265583374677        0.47164797459780        1.19623300591643
C           -0.90304194947941        0.25338646269170       -0.97623148394212
C            0.36646793733500        0.98894687408775       -0.52420515184123
C            1.55458864263636        0.16878661190388        0.03918151619656
C            1.80326559911565       -1.08907226236251       -0.79897438426591
C            2.80207260995066        1.06327971369454       -0.02712360880147
C            1.34242042032027       -0.22511243045821        1.50806983989717
H           -3.58015589872663       -1.66133397513620        0.12103228065043
H           -2.66910497140448       -1.79401514286105       -1.39330391154189
H           -3.60772130012339       -0.33061161688470       -1.04873721793358
H           -1.16248234289545       -1.28103846902460        0.51928978636716
H           -1.35610320874539        0.89157450417415        1.74689891005179
H           -2.78010508517265        1.30742119975995        0.78084952346974
H           -2.84184735726355       -0.05204929779533        1.91564490932139
H           -0.63865532718392       -0.46625101897387       -1.76151963025560
H           -1.55249123200894        0.99784876177586       -1.46056523370618
H            0.10986951700938        1.76635419389936        0.20796763718502
H            0.74062771397308        1.52376549990593       -1.40800030058853
H            1.93580509144769       -0.83760994419490       -1.85797419949712
H            2.71172395046382       -1.59862954687802       -0.45732660288003
H            0.97285965403199       -1.79885660664609       -0.72020349099988
H            3.66916668659347        0.55775846210365        0.41346176884389
H            3.04795552977957        1.31945403616341       -1.06400459814526
H            2.64036351232010        1.99798321822618        0.52301538882611
H            1.17829684635820        0.66318923090699        2.12877519953560
H            2.23126941078835       -0.74101500978089        1.89087254418516
H            0.48914113257689       -0.89484772939123        1.64141461016802
