 xtb: 6.7.1 (edcfbbe)
          04112512343D

 23 22  0     0  0            999 V2000
    2.6418    0.5581    0.5551 C   0  0  0  0  0  0  0  0  0  0  0  0
    1.3179   -0.1485    0.8270 C   0  0  0  0  0  0  0  0  0  0  0  0
    0.2888    0.0428   -0.2989 C   0  0  0  0  0  0  0  0  0  0  0  0
    0.3491    1.0787   -0.6521 H   0  0  0  0  0  0  0  0  0  0  0  0
    0.6391   -0.8828   -1.4650 C   0  0  0  0  0  0  0  0  0  0  0  0
   -1.1446   -0.1954    0.2240 C   0  0  0  0  0  0  0  0  0  0  0  0
   -1.6065    0.9692    1.1024 C   0  0  0  0  0  0  0  0  0  0  0  0
   -2.1614   -0.3751   -0.9046 C   0  0  0  0  0  0  0  0  0  0  0  0
    3.3297    0.3988    1.3823 H   0  0  0  0  0  0  0  0  0  0  0  0
    3.1120    0.1853   -0.3513 H   0  0  0  0  0  0  0  0  0  0  0  0
    2.4835    1.6285    0.4425 H   0  0  0  0  0  0  0  0  0  0  0  0
    0.9170    0.2350    1.7658 H   0  0  0  0  0  0  0  0  0  0  0  0
    1.4963   -1.2178    0.9627 H   0  0  0  0  0  0  0  0  0  0  0  0
    0.4545   -1.9203   -1.1936 H   0  0  0  0  0  0  0  0  0  0  0  0
    0.0579   -0.6431   -2.3504 H   0  0  0  0  0  0  0  0  0  0  0  0
    1.6903   -0.7808   -1.7216 H   0  0  0  0  0  0  0  0  0  0  0  0
   -1.1372   -1.1103    0.8282 H   0  0  0  0  0  0  0  0  0  0  0  0
   -0.9281    1.1466    1.9321 H   0  0  0  0  0  0  0  0  0  0  0  0
   -2.5918    0.7618    1.5137 H   0  0  0  0  0  0  0  0  0  0  0  0
   -1.6677    1.8805    0.5109 H   0  0  0  0  0  0  0  0  0  0  0  0
   -3.1654   -0.4282   -0.4891 H   0  0  0  0  0  0  0  0  0  0  0  0
   -1.9823   -1.2885   -1.4633 H   0  0  0  0  0  0  0  0  0  0  0  0
   -2.1212    0.4696   -1.5891 H   0  0  0  0  0  0  0  0  0  0  0  0
  1  2  1  0  0  0  0
  2  3  1  0  0  0  0
  3  4  1  0  0  0  0
  3  5  1  0  0  0  0
  3  6  1  0  0  0  0
  6  7  1  0  0  0  0
  6  8  1  0  0  0  0
  1  9  1  0  0  0  0
  1 10  1  0  0  0  0
  1 11  1  0  0  0  0
  2 12  1  0  0  0  0
  2 13  1  0  0  0  0
  5 14  1  0  0  0  0
  5 15  1  0  0  0  0
  5 16  1  0  0  0  0
  6 17  1  0  0  0  0
  7 18  1  0  0  0  0
  7 19  1  0  0  0  0
  7 20  1  0  0  0  0
  8 21  1  0  0  0  0
  8 22  1  0  0  0  0
  8 23  1  0  0  0  0
M  END
