 xtb: 6.7.1 (edcfbbe)
          04112511203D

 17 16  0     0  0            999 V2000
    1.8492    0.6579   -0.8497 C   0  0  0  0  0  0  0  0  0  0  0  0
    1.4053    0.0573    0.4824 C   0  0  0  0  0  0  0  0  0  0  0  0
    1.4917   -1.4671    0.4498 C   0  0  0  0  0  0  0  0  0  0  0  0
   -0.0038    0.5272    0.8629 C   0  0  0  0  0  0  0  0  0  0  0  0
   -1.1132    0.1400   -0.0780 C   0  0  0  0  0  0  0  0  0  0  0  0
   -1.0225   -0.5037   -1.1001 O   0  0  0  0  0  0  0  0  0  0  0  0
   -2.2812    0.6058    0.3535 O   0  0  0  0  0  0  0  0  0  0  0  0
    1.2026    0.3119   -1.6520 H   0  0  0  0  0  0  0  0  0  0  0  0
    2.8688    0.3572   -1.0766 H   0  0  0  0  0  0  0  0  0  0  0  0
    1.8101    1.7442   -0.8141 H   0  0  0  0  0  0  0  0  0  0  0  0
    2.0805    0.4222    1.2649 H   0  0  0  0  0  0  0  0  0  0  0  0
    2.5089   -1.7815    0.2310 H   0  0  0  0  0  0  0  0  0  0  0  0
    1.1989   -1.8897    1.4082 H   0  0  0  0  0  0  0  0  0  0  0  0
    0.8362   -1.8642   -0.3210 H   0  0  0  0  0  0  0  0  0  0  0  0
   -0.0293    1.6167    0.9401 H   0  0  0  0  0  0  0  0  0  0  0  0
   -0.2792    0.1343    1.8445 H   0  0  0  0  0  0  0  0  0  0  0  0
   -3.0207    0.3687   -0.2383 H   0  0  0  0  0  0  0  0  0  0  0  0
  1  2  1  0  0  0  0
  2  3  1  0  0  0  0
  2  4  1  0  0  0  0
  4  5  1  0  0  0  0
  5  6  2  0  0  0  0
  5  7  1  0  0  0  0
  1  8  1  0  0  0  0
  1  9  1  0  0  0  0
  1 10  1  0  0  0  0
  2 11  1  0  0  0  0
  3 12  1  0  0  0  0
  3 13  1  0  0  0  0
  3 14  1  0  0  0  0
  4 15  1  0  0  0  0
  4 16  1  0  0  0  0
  7 17  1  0  0  0  0
M  END
