 38

C      1.754000     0.624000    -4.188000
C      0.377000     0.031000    -3.928000
C      0.459000    -1.398000    -3.500000
C      0.428000    -2.394000    -4.477000
C      0.503000    -3.737000    -4.106000
C      0.609000    -4.084000    -2.760000
C      0.640000    -3.088000    -1.783000
C      0.565000    -1.745000    -2.153000
N      0.598000    -0.712000    -1.139000
C      1.899000    -0.151000    -0.726000
O      2.081000    -0.384000     0.669000
C      3.321000     0.134000     1.129000
C     -0.620000    -0.265000    -0.570000
O     -0.706000     0.607000     0.298000
C     -1.874000    -0.914000    -1.132000
Cl    -3.328000    -0.272000    -0.340000
C      0.755000    -3.492000    -0.348000
C      2.207000    -3.596000     0.108000
H      1.683000     1.671000    -4.501000
H      2.261000     0.066000    -4.981000
H      2.380000     0.583000    -3.290000
H     -0.238000     0.111000    -4.833000
H     -0.140000     0.618000    -3.158000
H      0.346000    -2.134000    -5.529000
H      0.479000    -4.512000    -4.867000
H      0.668000    -5.132000    -2.481000
H      1.929000     0.924000    -0.921000
H      2.711000    -0.597000    -1.312000
H      3.421000    -0.064000     2.197000
H      3.355000     1.208000     0.939000
H      4.130000    -0.359000     0.588000
H     -1.853000    -1.991000    -0.946000
H     -1.969000    -0.707000    -2.200000
H      0.224000    -2.772000     0.293000
H      0.253000    -4.458000    -0.183000
H      2.268000    -3.892000     1.161000
H      2.716000    -2.633000    -0.003000
H      2.753000    -4.339000    -0.483000
