 11

C      0.865000    -0.543000     0.397000
C      1.006000    -0.302000     1.893000
C      1.198000     1.174000     2.208000
Cl     2.397000    -1.233000     2.519000
H      0.727000    -1.608000     0.182000
H     -0.007000    -0.010000     0.002000
H      1.747000    -0.196000    -0.152000
H      0.116000    -0.675000     2.410000
H      1.298000     1.335000     3.287000
H      0.336000     1.756000     1.865000
H      2.091000     1.578000     1.720000
