 xtb: 6.7.1 (edcfbbe)
          04112511263D

 29 28  0     0  0            999 V2000
   -2.6996   -0.5200   -1.1734 C   0  0  0  0  0  0  0  0  0  0  0  0
   -2.1279   -0.2963    0.2242 C   0  0  0  0  0  0  0  0  0  0  0  0
   -3.1338    0.4648    1.0868 C   0  0  0  0  0  0  0  0  0  0  0  0
   -0.7954    0.4603    0.1820 C   0  0  0  0  0  0  0  0  0  0  0  0
    0.3127   -0.3166   -0.5363 C   0  0  0  0  0  0  0  0  0  0  0  0
    1.7432   -0.0390   -0.0364 C   0  0  0  0  0  0  0  0  0  0  0  0
    2.7218   -0.7644   -0.9674 C   0  0  0  0  0  0  0  0  0  0  0  0
    2.0536    1.4589   -0.0618 C   0  0  0  0  0  0  0  0  0  0  0  0
    1.9297   -0.5838    1.3824 C   0  0  0  0  0  0  0  0  0  0  0  0
   -2.8797    0.4337   -1.6649 H   0  0  0  0  0  0  0  0  0  0  0  0
   -3.6430   -1.0582   -1.1126 H   0  0  0  0  0  0  0  0  0  0  0  0
   -2.0151   -1.1007   -1.7854 H   0  0  0  0  0  0  0  0  0  0  0  0
   -1.9487   -1.2740    0.6872 H   0  0  0  0  0  0  0  0  0  0  0  0
   -3.3419    1.4407    0.6533 H   0  0  0  0  0  0  0  0  0  0  0  0
   -4.0691   -0.0854    1.1589 H   0  0  0  0  0  0  0  0  0  0  0  0
   -2.7448    0.6119    2.0920 H   0  0  0  0  0  0  0  0  0  0  0  0
   -0.9487    1.4250   -0.3057 H   0  0  0  0  0  0  0  0  0  0  0  0
   -0.4974    0.6584    1.2123 H   0  0  0  0  0  0  0  0  0  0  0  0
    0.2721   -0.0927   -1.6043 H   0  0  0  0  0  0  0  0  0  0  0  0
    0.1249   -1.3871   -0.4210 H   0  0  0  0  0  0  0  0  0  0  0  0
    3.7448   -0.6314   -0.6227 H   0  0  0  0  0  0  0  0  0  0  0  0
    2.5058   -1.8302   -0.9941 H   0  0  0  0  0  0  0  0  0  0  0  0
    2.6493   -0.3748   -1.9803 H   0  0  0  0  0  0  0  0  0  0  0  0
    3.0882    1.6318    0.2267 H   0  0  0  0  0  0  0  0  0  0  0  0
    1.9050    1.8616   -1.0612 H   0  0  0  0  0  0  0  0  0  0  0  0
    1.4138    2.0030    0.6274 H   0  0  0  0  0  0  0  0  0  0  0  0
    1.2751   -0.0815    2.0896 H   0  0  0  0  0  0  0  0  0  0  0  0
    2.9556   -0.4353    1.7112 H   0  0  0  0  0  0  0  0  0  0  0  0
    1.7108   -1.6489    1.4113 H   0  0  0  0  0  0  0  0  0  0  0  0
  1  2  1  0  0  0  0
  2  3  1  0  0  0  0
  2  4  1  0  0  0  0
  4  5  1  0  0  0  0
  5  6  1  0  0  0  0
  6  7  1  0  0  0  0
  6  8  1  0  0  0  0
  6  9  1  0  0  0  0
  1 10  1  0  0  0  0
  1 11  1  0  0  0  0
  1 12  1  0  0  0  0
  2 13  1  0  0  0  0
  3 14  1  0  0  0  0
  3 15  1  0  0  0  0
  3 16  1  0  0  0  0
  4 17  1  0  0  0  0
  4 18  1  0  0  0  0
  5 19  1  0  0  0  0
  5 20  1  0  0  0  0
  7 21  1  0  0  0  0
  7 22  1  0  0  0  0
  7 23  1  0  0  0  0
  8 24  1  0  0  0  0
  8 25  1  0  0  0  0
  8 26  1  0  0  0  0
  9 27  1  0  0  0  0
  9 28  1  0  0  0  0
  9 29  1  0  0  0  0
M  END
