 xtb: 6.7.1 (edcfbbe)
          04112512213D

 19 18  0     0  0            999 V2000
    1.9167    0.7365   -0.7039 C   0  0  0  0  0  0  0  0  0  0  0  0
    1.3681    0.0201    0.5284 C   0  0  0  0  0  0  0  0  0  0  0  0
    1.4073   -1.4953    0.3412 C   0  0  0  0  0  0  0  0  0  0  0  0
   -0.0501    0.4962    0.8748 C   0  0  0  0  0  0  0  0  0  0  0  0
   -1.1396    0.1659   -0.1165 C   0  0  0  0  0  0  0  0  0  0  0  0
   -0.9463   -0.2067   -1.2563 O   0  0  0  0  0  0  0  0  0  0  0  0
   -2.5294    0.3386    0.4331 C   0  0  0  0  0  0  0  0  0  0  0  0
    1.9248    1.8135   -0.5508 H   0  0  0  0  0  0  0  0  0  0  0  0
    2.9340    0.4107   -0.9070 H   0  0  0  0  0  0  0  0  0  0  0  0
    1.3040    0.5139   -1.5733 H   0  0  0  0  0  0  0  0  0  0  0  0
    2.0070    0.2751    1.3827 H   0  0  0  0  0  0  0  0  0  0  0  0
    2.4271   -1.8274    0.1636 H   0  0  0  0  0  0  0  0  0  0  0  0
    0.8000   -1.7856   -0.5128 H   0  0  0  0  0  0  0  0  0  0  0  0
    1.0290   -2.0024    1.2262 H   0  0  0  0  0  0  0  0  0  0  0  0
   -0.0464    1.5857    0.9703 H   0  0  0  0  0  0  0  0  0  0  0  0
   -0.3470    0.0911    1.8439 H   0  0  0  0  0  0  0  0  0  0  0  0
   -2.5963    1.2304    1.0481 H   0  0  0  0  0  0  0  0  0  0  0  0
   -3.2510    0.3797   -0.3781 H   0  0  0  0  0  0  0  0  0  0  0  0
   -2.7584   -0.5235    1.0568 H   0  0  0  0  0  0  0  0  0  0  0  0
  1  2  1  0  0  0  0
  2  3  1  0  0  0  0
  2  4  1  0  0  0  0
  4  5  1  0  0  0  0
  5  6  2  0  0  0  0
  5  7  1  0  0  0  0
  1  8  1  0  0  0  0
  1  9  1  0  0  0  0
  1 10  1  0  0  0  0
  2 11  1  0  0  0  0
  3 12  1  0  0  0  0
  3 13  1  0  0  0  0
  3 14  1  0  0  0  0
  4 15  1  0  0  0  0
  4 16  1  0  0  0  0
  7 17  1  0  0  0  0
  7 18  1  0  0  0  0
  7 19  1  0  0  0  0
M  END
