  18
 
 C         -2.5278839060        0.0721042920        0.2748397319
 C         -1.2619533088        0.7304455193       -0.2603151721
 C          0.0012630872       -0.0136803672        0.1958957485
 C          1.2685090960        0.7214059919       -0.2634054234
 C          2.5311895284        0.0544445488        0.2687775090
 O         -0.0039913346       -1.3519974162       -0.2520436666
 H         -3.4130639322        0.5545332086       -0.1326969671
 H         -2.5446790761       -0.9804373572        0.0025395191
 H         -2.5616687991        0.1432050926        1.3594015452
 H         -1.2878367059        0.7404133547       -1.3542662002
 H         -1.2075191570        1.7650932606        0.0820693187
 H          0.0022346370       -0.0919444196        1.2885775699
 H          1.2917837452        0.7310012704       -1.3574458042
 H          1.2222177077        1.7564973918        0.0788416177
 H          3.4186206286        0.5305977951       -0.1412831940
 H          2.5683270834        0.1257695914        1.3532032984
 H          2.5401693334       -0.9983284170       -0.0030379002
 H         -0.0011676657       -1.3444018563       -1.2165969289
          18
        -20.89172393
 C         -2.5292798349        0.0739071917        0.2890545395
 C         -1.2653076588        0.7147807189       -0.2712813246
 C         -0.0000032789       -0.0085795554        0.2114912253
 C          1.2654673307        0.7143789702       -0.2714689274
 C          2.5295005395        0.0738177466        0.2890949440
 O         -0.0003196087       -1.3616071010       -0.1896557193
 H         -2.5443774917       -0.9879229370        0.0553309210
 H         -2.5618859051        0.1844134642        1.3704018344
 H         -3.4159860002        0.5393805507       -0.1346506951
 H         -1.2917637845        0.6837666763       -1.3648812384
 H         -1.2133481225        1.7617178559        0.0319866203
 H          0.0000710124       -0.0487987975        1.3062210798
 H          1.2921644711        0.6829577185       -1.3649930823
 H          1.2135788668        1.7613243258        0.0315605771
 H          2.5609673783        0.1831702133        1.3705700852
 H          2.5457085553       -0.9877519645        0.0541127200
 H          3.4161705797        0.5406310721       -0.1333126366
 H         -0.0007199115       -1.3880102816       -1.1539103888
