 xtb: 6.7.1 (edcfbbe)
          04112511363D

 14 13  0     0  0            999 V2000
   -1.0144   -0.4621   -0.3172 C   0  0  0  0  0  0  0  0  0  0  0  0
    0.1444    0.3504    0.2747 C   0  0  0  0  0  0  0  0  0  0  0  0
    1.4778   -0.0742   -0.3428 C   0  0  0  0  0  0  0  0  0  0  0  0
    1.7372   -1.4088    0.0253 O   0  0  0  0  0  0  0  0  0  0  0  0
   -0.0269    1.7307    0.0390 O   0  0  0  0  0  0  0  0  0  0  0  0
   -2.2490   -0.1099    0.2658 O   0  0  0  0  0  0  0  0  0  0  0  0
   -0.7993   -1.5288   -0.2014 H   0  0  0  0  0  0  0  0  0  0  0  0
   -1.1090   -0.2288   -1.3807 H   0  0  0  0  0  0  0  0  0  0  0  0
    0.1953    0.1627    1.3605 H   0  0  0  0  0  0  0  0  0  0  0  0
    2.2552    0.6032    0.0309 H   0  0  0  0  0  0  0  0  0  0  0  0
    1.4122    0.0329   -1.4329 H   0  0  0  0  0  0  0  0  0  0  0  0
    2.5914   -1.6784   -0.3398 H   0  0  0  0  0  0  0  0  0  0  0  0
   -0.9703    1.9339    0.1390 H   0  0  0  0  0  0  0  0  0  0  0  0
   -2.2851   -0.4469    1.1719 H   0  0  0  0  0  0  0  0  0  0  0  0
  1  2  1  0  0  0  0
  2  3  1  0  0  0  0
  3  4  1  0  0  0  0
  2  5  1  0  0  0  0
  1  6  1  0  0  0  0
  1  7  1  0  0  0  0
  1  8  1  0  0  0  0
  2  9  1  0  0  0  0
  3 10  1  0  0  0  0
  3 11  1  0  0  0  0
  4 12  1  0  0  0  0
  5 13  1  0  0  0  0
  6 14  1  0  0  0  0
M  END
