22
CONF2
C -4.2695937651 -0.0258046918 -0.2190739459
C -2.7747794689 -0.1244524848 -0.5023018477
C -1.9226962631 0.2403439042 0.7226206826
C -0.4475153645 0.1398524060 0.4404838595
C 0.2406777224 -1.0649632536 0.6185632733
C 1.5899131258 -1.1862413586 0.3030046653
C 2.2759847645 -0.0849944490 -0.2048689574
C 1.6163736075 1.1287511314 -0.3895462177
C 0.2657004554 1.2294306868 -0.0673631960
O 3.6143408519 -0.2478112589 -0.5057046462
H -4.5457604333 0.9912550508 0.0805669007
H -4.8597596342 -0.2870206681 -1.1032837977
H -4.5611758494 -0.7034377500 0.5910670567
H -2.5057349726 0.5409377606 -1.3326069991
H -2.5198277019 -1.1431315071 -0.8213924139
H -2.1875158615 -0.4281140847 1.5509462597
H -2.1712382668 1.2614415771 1.0366889637
H -0.2885132548 -1.9275280122 1.0154269759
H 2.1152474558 -2.1245698578 0.4496151997
H 2.1594492968 1.9856360796 -0.7792053369
H -0.2418020934 2.1795925351 -0.2130621664
H 3.9592712589 0.5887534056 -0.8472520714
22
CONF1
C -2.9138245477 0.9692291795 1.0763494230
C -2.9579221942 -0.3792312618 0.3646197157
C -2.0646509388 -0.4300058377 -0.8872822765
C -0.6024365856 -0.2559569355 -0.5698455328
C 0.1388326008 -1.3118204469 -0.0268761567
C 1.4769043532 -1.1601494348 0.3182552437
C 2.1002187843 0.0718896657 0.1229816328
C 1.3872240407 1.1392219958 -0.4193087189
C 0.0470894750 0.9663181302 -0.7585148433
O 3.4286657480 0.1787733865 0.4801120004
H -3.5840877244 0.9807962896 1.9419354513
H -1.9038294158 1.1993007462 1.4325533891
H -3.2202857717 1.7770295410 0.4014884785
H -3.9888948098 -0.6035192421 0.0653459879
H -2.6494275463 -1.1748447611 1.0549508770
H -2.3814816715 0.3557630316 -1.5833884082
H -2.2162288205 -1.3920910102 -1.3907026841
H -0.3395888407 -2.2757803647 0.1278597195
H 2.0445315821 -1.9871199927 0.7338091014
H 1.8793157947 2.0962135568 -0.5732609435
H -0.5039675537 1.8038528561 -1.1782960501
H 3.7275581732 1.0821111177 0.3072512742
22
CONF4
C -2.9971045831 0.8826381183 -1.0081545201
C -3.0228531976 0.3788884391 0.4311002839
C -2.0947719644 -0.8252478391 0.6658005047
C -0.6423438455 -0.5071429415 0.4217284373
C 0.0141864424 -0.9277676402 -0.7371049562
C 1.3475354798 -0.6033053014 -0.9785057085
C 2.0468679125 0.1602516228 -0.0461725996
C 1.4146918501 0.5941517355 1.1188196845
C 0.0840962358 0.2592587892 1.3408692040
O 3.3691363350 0.5137905354 -0.2225146871
H -2.0017773555 1.2456627737 -1.2863951229
H -3.2677879956 0.0834021802 -1.7080245800
H -3.7040119590 1.7066364114 -1.1496253478
H -4.0449180294 0.0864410482 0.7008278027
H -2.7368717700 1.1895416865 1.1134151153
H -2.4014894333 -1.6457039624 0.0061316206
H -2.2233957016 -1.1733454426 1.6976910590
H -0.5251609496 -1.5223167149 -1.4699126697
H 1.8448662743 -0.9419085342 -1.8837614143
H 1.9703369150 1.1837940974 1.8413743910
H -0.3998713617 0.5989025220 2.2532127473
H 3.6832639927 0.1504403181 -1.0620044039
22
CONF3
C -4.3227917741 0.3504405570 -0.0089210112
C -2.8400681700 0.7062870291 -0.0709762339
C -1.9592362585 -0.4875019189 0.2918003717
C -0.4688280133 -0.2837714367 0.1387617674
C 0.3779585676 -1.3987214265 0.0845502441
C 1.7555728791 -1.2682800455 -0.0351611046
C 2.3190640897 0.0049410534 -0.1089400660
C 1.5031355375 1.1312800248 -0.0610213097
C 0.1224728137 0.9796139617 0.0627359749
O 3.6922016533 0.0897783458 -0.2341342284
H -4.6021458519 0.0046369790 0.9925983901
H -4.9497138374 1.2139753192 -0.2523413121
H -4.5642058954 -0.4499717491 -0.7171247609
H -2.6392192504 1.5413874334 0.6107376568
H -2.5849151647 1.0560054349 -1.0795653122
H -2.2536773403 -1.3474255298 -0.3238960720
H -2.1743732535 -0.7815407327 1.3293509223
H -0.0531330641 -2.3954408256 0.1364253224
H 2.3971582156 -2.1428412962 -0.0782857161
H 1.9451384578 2.1223994644 -0.1219690518
H -0.4918776685 1.8732751767 0.0969666336
H 3.9460117387 1.0224115663 -0.2748909456
