 29

C      2.694000    -0.150000    -0.308000
C      1.799000    -1.131000    -1.034000
O      0.870000    -0.409000    -1.826000
P     -0.226000    -1.212000    -2.724000
S     -1.449000    -2.369000    -1.741000
O      0.738000    -1.914000    -3.832000
C      0.188000    -2.366000    -5.058000
C      1.290000    -2.974000    -5.900000
O     -0.884000     0.004000    -3.571000
C     -1.533000     1.095000    -3.058000
C     -2.048000     2.060000    -3.908000
C     -2.696000     3.150000    -3.338000
C     -2.808000     3.240000    -1.954000
C     -2.259000     2.221000    -1.192000
N     -1.622000     1.147000    -1.710000
Cl    -2.323000     2.197000     0.529000
Cl    -3.614000     4.597000    -1.267000
Cl    -1.906000     1.944000    -5.618000
H      3.425000    -0.676000     0.314000
H      3.229000     0.485000    -1.021000
H      2.102000     0.515000     0.329000
H      1.247000    -1.749000    -0.320000
H      2.390000    -1.780000    -1.688000
H     -0.587000    -3.110000    -4.847000
H     -0.266000    -1.516000    -5.578000
H      0.899000    -3.334000    -6.856000
H      2.077000    -2.238000    -6.095000
H      1.760000    -3.811000    -5.373000
H     -3.114000     3.928000    -3.973000
