  29
 
 C          2.6940000000       -0.1500000000       -0.3080000000
 C          1.7990000000       -1.1310000000       -1.0340000000
 O          0.8700000000       -0.4090000000       -1.8260000000
 P         -0.2260000000       -1.2120000000       -2.7240000000
 S         -1.4490000000       -2.3690000000       -1.7410000000
 O          0.7380000000       -1.9140000000       -3.8320000000
 C          0.1880000000       -2.3660000000       -5.0580000000
 C          1.2900000000       -2.9740000000       -5.9000000000
 O         -0.8840000000        0.0040000000       -3.5710000000
 C         -1.5330000000        1.0950000000       -3.0580000000
 C         -2.0480000000        2.0600000000       -3.9080000000
 C         -2.6960000000        3.1500000000       -3.3380000000
 C         -2.8080000000        3.2400000000       -1.9540000000
 C         -2.2590000000        2.2210000000       -1.1920000000
 N         -1.6220000000        1.1470000000       -1.7100000000
 Cl        -2.3230000000        2.1970000000        0.5290000000
 Cl        -3.6140000000        4.5970000000       -1.2670000000
 Cl        -1.9060000000        1.9440000000       -5.6180000000
 H          3.4250000000       -0.6760000000        0.3140000000
 H          3.2290000000        0.4850000000       -1.0210000000
 H          2.1020000000        0.5150000000        0.3290000000
 H          1.2470000000       -1.7490000000       -0.3200000000
 H          2.3900000000       -1.7800000000       -1.6880000000
 H         -0.5870000000       -3.1100000000       -4.8470000000
 H         -0.2660000000       -1.5160000000       -5.5780000000
 H          0.8990000000       -3.3340000000       -6.8560000000
 H          2.0770000000       -2.2380000000       -6.0950000000
 H          1.7600000000       -3.8110000000       -5.3730000000
 H         -3.1140000000        3.9280000000       -3.9730000000
