 16

C      0.304000     0.820000     2.430000
O     -0.853000     0.236000     1.847000
C     -0.894000     0.451000     0.442000
C     -2.146000    -0.194000    -0.121000
O     -2.115000    -1.589000     0.155000
C     -3.268000    -2.246000    -0.351000
H      0.302000     0.636000     3.508000
H      0.309000     1.895000     2.234000
H      1.194000     0.366000     1.987000
H     -0.890000     1.530000     0.261000
H      0.000000     0.000000     0.000000
H     -2.204000    -0.062000    -1.206000
H     -3.038000     0.229000     0.350000
H     -3.207000    -3.310000    -0.120000
H     -3.324000    -2.095000    -1.430000
H     -4.152000    -1.818000     0.125000
