 xtb: 6.7.1 (edcfbbe)
          04112514293D

 35 35  0     0  0            999 V2000
   -0.3526   -2.6795   -0.1815 C   0  0  0  0  0  0  0  0  0  0  0  0
    0.4745   -1.4401   -0.0576 C   0  0  0  0  0  0  0  0  0  0  0  0
    1.8415   -1.3972   -0.3747 C   0  0  0  0  0  0  0  0  0  0  0  0
    2.5603   -0.2978   -0.2401 N   0  0  0  0  0  0  0  0  0  0  0  0
    1.9565    0.8134    0.2102 C   0  0  0  0  0  0  0  0  0  0  0  0
    0.6421    0.8858    0.4981 N   0  0  0  0  0  0  0  0  0  0  0  0
   -0.0529   -0.2223    0.3526 C   0  0  0  0  0  0  0  0  0  0  0  0
   -1.3974   -0.1032    0.6917 O   0  0  0  0  0  0  0  0  0  0  0  0
   -2.2848   -0.0988   -0.3453 C   0  0  0  0  0  0  0  0  0  0  0  0
   -1.9306   -0.2066   -1.5104 O   0  0  0  0  0  0  0  0  0  0  0  0
   -3.5488    0.0297    0.0601 N   0  0  0  0  0  0  0  0  0  0  0  0
   -4.6213    0.0422   -0.9122 C   0  0  0  0  0  0  0  0  0  0  0  0
   -3.9510    0.1658    1.4434 C   0  0  0  0  0  0  0  0  0  0  0  0
    2.6985    1.9125    0.3759 N   0  0  0  0  0  0  0  0  0  0  0  0
    2.1358    3.1562    0.8408 C   0  0  0  0  0  0  0  0  0  0  0  0
    4.1098    1.9301    0.0755 C   0  0  0  0  0  0  0  0  0  0  0  0
    2.5580   -2.6043   -0.8844 C   0  0  0  0  0  0  0  0  0  0  0  0
   -1.2448   -2.5999    0.4365 H   0  0  0  0  0  0  0  0  0  0  0  0
   -0.6680   -2.8159   -1.2168 H   0  0  0  0  0  0  0  0  0  0  0  0
    0.2159   -3.5524    0.1282 H   0  0  0  0  0  0  0  0  0  0  0  0
   -5.3130   -0.7747   -0.7059 H   0  0  0  0  0  0  0  0  0  0  0  0
   -4.1924   -0.0817   -1.9036 H   0  0  0  0  0  0  0  0  0  0  0  0
   -5.1555    0.9910   -0.8611 H   0  0  0  0  0  0  0  0  0  0  0  0
   -4.5481   -0.6984    1.7381 H   0  0  0  0  0  0  0  0  0  0  0  0
   -4.5515    1.0688    1.5541 H   0  0  0  0  0  0  0  0  0  0  0  0
   -3.0733    0.2351    2.0780 H   0  0  0  0  0  0  0  0  0  0  0  0
    2.6345    3.4650    1.7611 H   0  0  0  0  0  0  0  0  0  0  0  0
    1.0761    3.0152    1.0277 H   0  0  0  0  0  0  0  0  0  0  0  0
    2.2745    3.9312    0.0848 H   0  0  0  0  0  0  0  0  0  0  0  0
    4.6719    2.2049    0.9693 H   0  0  0  0  0  0  0  0  0  0  0  0
    4.3118    2.6610   -0.7092 H   0  0  0  0  0  0  0  0  0  0  0  0
    4.4094    0.9421   -0.2585 H   0  0  0  0  0  0  0  0  0  0  0  0
    2.5747   -3.3779   -0.1193 H   0  0  0  0  0  0  0  0  0  0  0  0
    2.0459   -2.9994   -1.7584 H   0  0  0  0  0  0  0  0  0  0  0  0
    3.5763   -2.3343   -1.1437 H   0  0  0  0  0  0  0  0  0  0  0  0
  1  2  1  0  0  0  0
  2  3  4  0  0  0  0
  3  4  4  0  0  0  0
  4  5  4  0  0  0  0
  5  6  4  0  0  0  0
  2  7  4  0  0  0  0
  6  7  4  0  0  0  0
  7  8  1  0  0  0  0
  8  9  1  0  0  0  0
  9 10  2  0  0  0  0
  9 11  4  0  0  0  0
 11 12  1  0  0  0  0
 11 13  1  0  0  0  0
  5 14  4  0  0  0  0
 14 15  1  0  0  0  0
 14 16  1  0  0  0  0
  3 17  1  0  0  0  0
  1 18  1  0  0  0  0
  1 19  1  0  0  0  0
  1 20  1  0  0  0  0
 12 21  1  0  0  0  0
 12 22  1  0  0  0  0
 12 23  1  0  0  0  0
 13 24  1  0  0  0  0
 13 25  1  0  0  0  0
 13 26  1  0  0  0  0
 15 27  1  0  0  0  0
 15 28  1  0  0  0  0
 15 29  1  0  0  0  0
 16 30  1  0  0  0  0
 16 31  1  0  0  0  0
 16 32  1  0  0  0  0
 17 33  1  0  0  0  0
 17 34  1  0  0  0  0
 17 35  1  0  0  0  0
M  END
