  11
 
 C          2.0291245506        0.0284830850        0.0000786611
 C          0.7480283802       -0.7945939881       -0.0003227971
 C         -0.4853158827        0.0900398850       -0.0013766572
 O         -0.4702532750        1.2840078531        0.0003572839
 O         -1.6556783797       -0.5834013860        0.0009557546
 H          2.9000538043       -0.6217377878        0.0001847773
 H          2.0633701689        0.6663362438       -0.8787487714
 H          2.0630632611        0.6662458271        0.8790204652
 H          0.7095552518       -1.4368409916       -0.8855669770
 H          0.7089858000       -1.4368500050        0.8849389092
 H         -1.5370775456       -1.5418947300        0.0002032969
          11
        -17.61366556
 C          2.0232140403        0.0342089900       -0.0001806856
 C          0.7405929824       -0.7864491122        0.0002332948
 C         -0.4918898681        0.0998482892        0.0000366880
 O         -0.4754795443        1.2935823391        0.0000707869
 O         -1.6627564741       -0.5730322949       -0.0001345945
 H          2.8925214103       -0.6182528471       -0.0000495913
 H          2.0587719629        0.6716648880       -0.8792570878
 H          2.0589497765        0.6722604741        0.8784544777
 H          0.7008517078       -1.4292211790       -0.8847274808
 H          0.7009879895       -1.4284896563        0.8857296950
 H         -1.5438455142       -1.5315097198       -0.0002012745
          11
        -17.62368920
 C          2.0293143283        0.0643136750       -0.0001448703
 C          0.7594901066       -0.7741161631        0.0002011116
 C         -0.4821750247        0.0802950012       -0.0000324718
 O         -0.5200606590        1.2795597523        0.0000787880
 O         -1.5940121691       -0.6732028059       -0.0001014068
 H          2.9059702643       -0.5777955148        0.0000675225
 H          2.0590235288        0.7020786627       -0.8795173375
 H          2.0590710945        0.7027376031        0.8787465348
 H          0.7150210224       -1.4210827437       -0.8786306191
 H          0.7151250120       -1.4204677122        0.8795006096
 H         -2.3832009402       -0.1090271003       -0.0000909185
