 xtb: 6.7.1 (edcfbbe)
          04112511223D

 22 21  0     0  0            999 V2000
    2.2380    1.1095   -0.5460 C   0  0  0  0  0  0  0  0  0  0  0  0
    1.1989    0.4942    0.3887 C   0  0  0  0  0  0  0  0  0  0  0  0
    1.8157   -0.6544    1.1959 C   0  0  0  0  0  0  0  0  0  0  0  0
    0.0000    0.0012   -0.4047 C   0  0  0  0  0  0  0  0  0  0  0  0
   -0.0005    0.0044   -1.6193 O   0  0  0  0  0  0  0  0  0  0  0  0
   -1.1985   -0.4952    0.3874 C   0  0  0  0  0  0  0  0  0  0  0  0
   -2.2358   -1.1109   -0.5488 C   0  0  0  0  0  0  0  0  0  0  0  0
   -1.8177    0.6512    1.1957 C   0  0  0  0  0  0  0  0  0  0  0  0
    2.6123    0.3577   -1.2372 H   0  0  0  0  0  0  0  0  0  0  0  0
    3.0704    1.5105    0.0252 H   0  0  0  0  0  0  0  0  0  0  0  0
    1.7932    1.9101   -1.1324 H   0  0  0  0  0  0  0  0  0  0  0  0
    0.8488    1.2626    1.0837 H   0  0  0  0  0  0  0  0  0  0  0  0
    2.0501   -1.4910    0.5412 H   0  0  0  0  0  0  0  0  0  0  0  0
    2.7374   -0.3134    1.6597 H   0  0  0  0  0  0  0  0  0  0  0  0
    1.1451   -0.9962    1.9785 H   0  0  0  0  0  0  0  0  0  0  0  0
   -0.8474   -1.2640    1.0814 H   0  0  0  0  0  0  0  0  0  0  0  0
   -2.6100   -0.3593   -1.2402 H   0  0  0  0  0  0  0  0  0  0  0  0
   -1.7894   -1.9109   -1.1349 H   0  0  0  0  0  0  0  0  0  0  0  0
   -3.0685   -1.5131    0.0212 H   0  0  0  0  0  0  0  0  0  0  0  0
   -2.0544    1.4878    0.5421 H   0  0  0  0  0  0  0  0  0  0  0  0
   -2.7385    0.3077    1.6598 H   0  0  0  0  0  0  0  0  0  0  0  0
   -1.1476    0.9938    1.9783 H   0  0  0  0  0  0  0  0  0  0  0  0
  1  2  1  0  0  0  0
  2  3  1  0  0  0  0
  2  4  1  0  0  0  0
  4  5  2  0  0  0  0
  4  6  1  0  0  0  0
  6  7  1  0  0  0  0
  6  8  1  0  0  0  0
  1  9  1  0  0  0  0
  1 10  1  0  0  0  0
  1 11  1  0  0  0  0
  2 12  1  0  0  0  0
  3 13  1  0  0  0  0
  3 14  1  0  0  0  0
  3 15  1  0  0  0  0
  6 16  1  0  0  0  0
  7 17  1  0  0  0  0
  7 18  1  0  0  0  0
  7 19  1  0  0  0  0
  8 20  1  0  0  0  0
  8 21  1  0  0  0  0
  8 22  1  0  0  0  0
M  END
