 xtb: 6.7.1 (edcfbbe)
          04112511553D

 21 21  0     0  0            999 V2000
   -3.2179    1.3911   -0.0026 C   0  0  0  0  0  0  0  0  0  0  0  0
   -2.5642    0.0359    0.0001 C   0  0  0  0  0  0  0  0  0  0  0  0
   -3.2378   -0.9879    0.0026 O   0  0  0  0  0  0  0  0  0  0  0  0
   -1.0929   -0.0168   -0.0001 C   0  0  0  0  0  0  0  0  0  0  0  0
   -0.2843    1.1200   -0.0021 C   0  0  0  0  0  0  0  0  0  0  0  0
    1.0921    1.0144   -0.0020 C   0  0  0  0  0  0  0  0  0  0  0  0
    1.7000   -0.2411    0.0002 C   0  0  0  0  0  0  0  0  0  0  0  0
    0.8962   -1.3876    0.0020 C   0  0  0  0  0  0  0  0  0  0  0  0
   -0.4712   -1.2725    0.0018 C   0  0  0  0  0  0  0  0  0  0  0  0
    3.0343   -0.4564    0.0009 O   0  0  0  0  0  0  0  0  0  0  0  0
    3.9137    0.6563   -0.0008 C   0  0  0  0  0  0  0  0  0  0  0  0
   -2.9181    1.9490    0.8805 H   0  0  0  0  0  0  0  0  0  0  0  0
   -4.2975    1.2655   -0.0027 H   0  0  0  0  0  0  0  0  0  0  0  0
   -2.9174    1.9459   -0.8875 H   0  0  0  0  0  0  0  0  0  0  0  0
   -0.7239    2.1038   -0.0037 H   0  0  0  0  0  0  0  0  0  0  0  0
    1.6861    1.9136   -0.0036 H   0  0  0  0  0  0  0  0  0  0  0  0
    1.3791   -2.3516    0.0035 H   0  0  0  0  0  0  0  0  0  0  0  0
   -1.0991   -2.1511    0.0031 H   0  0  0  0  0  0  0  0  0  0  0  0
    4.9134    0.2285    0.0016 H   0  0  0  0  0  0  0  0  0  0  0  0
    3.7734    1.2690    0.8925 H   0  0  0  0  0  0  0  0  0  0  0  0
    3.7757    1.2645   -0.8975 H   0  0  0  0  0  0  0  0  0  0  0  0
  1  2  1  0  0  0  0
  2  3  2  0  0  0  0
  2  4  1  0  0  0  0
  4  5  4  0  0  0  0
  5  6  4  0  0  0  0
  6  7  4  0  0  0  0
  7  8  4  0  0  0  0
  4  9  4  0  0  0  0
  8  9  2  0  0  0  0
  7 10  1  0  0  0  0
 10 11  1  0  0  0  0
  1 12  1  0  0  0  0
  1 13  1  0  0  0  0
  1 14  1  0  0  0  0
  5 15  1  0  0  0  0
  6 16  1  0  0  0  0
  8 17  1  0  0  0  0
  9 18  1  0  0  0  0
 11 19  1  0  0  0  0
 11 20  1  0  0  0  0
 11 21  1  0  0  0  0
M  END
