 xtb: 6.7.1 (edcfbbe)
          04112511493D

 21 20  0     0  0            999 V2000
    2.5511   -0.3819   -0.5681 C   0  0  0  0  0  0  0  0  0  0  0  0
    1.2826   -0.0845    0.2340 C   0  0  0  0  0  0  0  0  0  0  0  0
    1.2408   -0.7644    1.1024 H   0  0  0  0  0  0  0  0  0  0  0  0
    0.0335   -0.3045   -0.6276 C   0  0  0  0  0  0  0  0  0  0  0  0
   -1.2687   -0.4699    0.1655 C   0  0  0  0  0  0  0  0  0  0  0  0
   -1.7496    0.8581    0.7441 C   0  0  0  0  0  0  0  0  0  0  0  0
   -2.3511   -1.0714   -0.7304 C   0  0  0  0  0  0  0  0  0  0  0  0
    1.2839    1.2562    0.6994 O   0  0  0  0  0  0  0  0  0  0  0  0
    2.5517   -1.4166   -0.8976 H   0  0  0  0  0  0  0  0  0  0  0  0
    2.5967    0.2679   -1.4389 H   0  0  0  0  0  0  0  0  0  0  0  0
    3.4369   -0.2138    0.0409 H   0  0  0  0  0  0  0  0  0  0  0  0
   -0.0611    0.5432   -1.3083 H   0  0  0  0  0  0  0  0  0  0  0  0
    0.1952   -1.2052   -1.2218 H   0  0  0  0  0  0  0  0  0  0  0  0
   -1.0800   -1.1639    0.9931 H   0  0  0  0  0  0  0  0  0  0  0  0
   -2.0207    1.5400   -0.0591 H   0  0  0  0  0  0  0  0  0  0  0  0
   -0.9648    1.3238    1.3324 H   0  0  0  0  0  0  0  0  0  0  0  0
   -2.6210    0.7052    1.3768 H   0  0  0  0  0  0  0  0  0  0  0  0
   -2.5345   -0.4244   -1.5854 H   0  0  0  0  0  0  0  0  0  0  0  0
   -2.0510   -2.0505   -1.0967 H   0  0  0  0  0  0  0  0  0  0  0  0
   -3.2810   -1.1815   -0.1778 H   0  0  0  0  0  0  0  0  0  0  0  0
    2.1138    1.4291    1.1634 H   0  0  0  0  0  0  0  0  0  0  0  0
  1  2  1  0  0  0  0
  2  3  1  0  0  0  0
  2  4  1  0  0  0  0
  4  5  1  0  0  0  0
  5  6  1  0  0  0  0
  5  7  1  0  0  0  0
  2  8  1  0  0  0  0
  1  9  1  0  0  0  0
  1 10  1  0  0  0  0
  1 11  1  0  0  0  0
  4 12  1  0  0  0  0
  4 13  1  0  0  0  0
  5 14  1  0  0  0  0
  6 15  1  0  0  0  0
  6 16  1  0  0  0  0
  6 17  1  0  0  0  0
  7 18  1  0  0  0  0
  7 19  1  0  0  0  0
  7 20  1  0  0  0  0
  8 21  1  0  0  0  0
M  END
