 xtb: 6.7.1 (edcfbbe)
          04112512073D

 27 27  0     0  0            999 V2000
   -2.7664   -1.3040   -2.0357 C   0  0  0  0  0  0  0  0  0  0  0  0
   -3.4883   -0.8638   -0.7671 C   0  0  0  0  0  0  0  0  0  0  0  0
   -2.5745   -0.8884    0.4608 C   0  0  0  0  0  0  0  0  0  0  0  0
   -2.1571   -1.8953    0.5697 H   0  0  0  0  0  0  0  0  0  0  0  0
   -3.3126   -0.5117    1.7413 C   0  0  0  0  0  0  0  0  0  0  0  0
   -1.3961   -0.0243    0.2645 N   0  0  0  0  0  0  0  0  0  0  0  0
   -0.1491   -0.6479    0.2511 C   0  0  0  0  0  0  0  0  0  0  0  0
   -0.0369   -1.8520    0.4088 O   0  0  0  0  0  0  0  0  0  0  0  0
    0.9761    0.2371    0.0402 C   0  0  0  0  0  0  0  0  0  0  0  0
    0.8335    1.5753   -0.1309 C   0  0  0  0  0  0  0  0  0  0  0  0
   -0.4373    2.0674   -0.0976 N   0  0  0  0  0  0  0  0  0  0  0  0
   -1.5787    1.3260    0.0908 C   0  0  0  0  0  0  0  0  0  0  0  0
   -2.6640    1.8766    0.0963 O   0  0  0  0  0  0  0  0  0  0  0  0
    1.9209    2.5595   -0.3516 C   0  0  0  0  0  0  0  0  0  0  0  0
    2.6710   -0.6259    0.0225 Br  0  0  0  0  0  0  0  0  0  0  0  0
   -2.3065   -2.2803   -1.8941 H   0  0  0  0  0  0  0  0  0  0  0  0
   -3.4669   -1.3667   -2.8635 H   0  0  0  0  0  0  0  0  0  0  0  0
   -1.9843   -0.5962   -2.3063 H   0  0  0  0  0  0  0  0  0  0  0  0
   -3.8957    0.1394   -0.8958 H   0  0  0  0  0  0  0  0  0  0  0  0
   -4.3165   -1.5437   -0.5669 H   0  0  0  0  0  0  0  0  0  0  0  0
   -3.7509    0.4783    1.6519 H   0  0  0  0  0  0  0  0  0  0  0  0
   -4.1036   -1.2329    1.9207 H   0  0  0  0  0  0  0  0  0  0  0  0
   -2.6304   -0.5252    2.5883 H   0  0  0  0  0  0  0  0  0  0  0  0
   -0.5851    3.0643   -0.2222 H   0  0  0  0  0  0  0  0  0  0  0  0
    1.7720    3.0664   -1.3028 H   0  0  0  0  0  0  0  0  0  0  0  0
    2.8910    2.0731   -0.3581 H   0  0  0  0  0  0  0  0  0  0  0  0
    1.9050    3.3090    0.4370 H   0  0  0  0  0  0  0  0  0  0  0  0
  1  2  1  0  0  0  0
  2  3  1  0  0  0  0
  3  4  1  0  0  0  0
  3  5  1  0  0  0  0
  3  6  1  0  0  0  0
  6  7  1  0  0  0  0
  7  8  2  0  0  0  0
  7  9  1  0  0  0  0
  9 10  2  0  0  0  0
 10 11  1  0  0  0  0
  6 12  1  0  0  0  0
 11 12  1  0  0  0  0
 12 13  2  0  0  0  0
 10 14  1  0  0  0  0
  9 15  1  0  0  0  0
  1 16  1  0  0  0  0
  1 17  1  0  0  0  0
  1 18  1  0  0  0  0
  2 19  1  0  0  0  0
  2 20  1  0  0  0  0
  5 21  1  0  0  0  0
  5 22  1  0  0  0  0
  5 23  1  0  0  0  0
 11 24  1  0  0  0  0
 14 25  1  0  0  0  0
 14 26  1  0  0  0  0
 14 27  1  0  0  0  0
M  END
