 23

C     -2.286000    -0.681000    -2.647000
C     -0.853000    -0.273000    -2.343000
C     -0.716000     0.275000    -0.922000
C      0.730000     0.684000    -0.624000
C      0.927000     1.241000     0.790000
C      2.346000     1.641000     1.080000
C      2.704000     2.888000     1.411000
C      4.123000     3.178000     1.689000
O      4.507000     4.301000     1.996000
H     -2.376000    -1.072000    -3.666000
H     -2.954000     0.181000    -2.554000
H     -2.630000    -1.453000    -1.951000
H     -0.535000     0.486000    -3.068000
H     -0.197000    -1.141000    -2.473000
H     -1.376000     1.142000    -0.798000
H     -1.046000    -0.490000    -0.210000
H      1.397000    -0.174000    -0.781000
H      1.036000     1.456000    -1.341000
H      0.613000     0.496000     1.531000
H      0.260000     2.103000     0.917000
H      3.095000     0.856000     1.029000
H      1.992000     3.701000     1.483000
H      4.822000     2.329000     1.604000
