26
 xtb: 6.7.1 (edcfbbe)
C            4.15244232095955        0.15253322412133       -0.45621185661987
N            2.72026298523356       -0.12510417359600       -0.55866857383216
C            2.34126635631148       -1.03723255077478       -1.63843691808996
C            1.92017765137060        0.22033170926314        0.47521104751303
O            2.38899381623124        0.71408877151534        1.52523923245651
C            0.44580731915840        0.05229706570177        0.34174995384505
C           -0.25549226675633        0.44820448736624       -0.79826043874944
C           -1.64422577595641        0.37504810775355       -0.85244233490522
C           -2.34612158893464       -0.12076805287685        0.24927422060652
C           -1.65519835700046       -0.51759706791626        1.40132554359036
C           -0.27695620938469       -0.41587373767431        1.44754613263386
O           -3.70447380109366       -0.25159930369509        0.30009789195679
C           -4.45236678245972        0.13595391927837       -0.86497234335811
H            4.31789658523002        1.12417913610879        0.01249943233903
H            4.57577250108177        0.16690922301336       -1.46363376692484
H            4.66878918519007       -0.61684174394640        0.13235664178761
H            1.34609119861709       -1.44589839634132       -1.47073058239447
H            3.05405574868787       -1.86947660336545       -1.66353860481777
H            2.36497598935923       -0.53185561745113       -2.61010376465407
H            0.27844349325557        0.84029393800163       -1.65795340478431
H           -2.15888425665311        0.70697199530386       -1.74541913319095
H           -2.21599128384772       -0.89764373410604        2.24908803569906
H            0.25442013165028       -0.71261435339134        2.34625307562621
H           -4.32306459424323        1.20320301231324       -1.07574875295696
H           -5.49628648093208       -0.06549768459100       -0.62348419543744
H           -4.15493613248242       -0.45789057659314       -1.73601855568465
