 22

C      1.885000    -1.036000    -0.112000
C      2.921000    -1.631000     0.608000
C      2.878000    -1.652000     2.002000
C      1.800000    -1.079000     2.676000
C      0.764000    -0.484000     1.955000
C      0.807000    -0.463000     0.561000
C      1.755000    -1.101000     4.166000
C      1.051000    -2.355000     4.704000
C      1.004000    -2.380000     6.225000
O      0.341000    -3.564000     6.645000
H      1.918000    -1.021000    -1.198000
H      3.760000    -2.078000     0.084000
H      3.690000    -2.117000     2.555000
H     -0.080000    -0.035000     2.471000
H     -0.001000    -0.001000     0.000000
H      1.239000    -0.205000     4.552000
H      2.775000    -1.054000     4.585000
H      1.556000    -3.260000     4.342000
H      0.028000    -2.415000     4.308000
H      2.014000    -2.378000     6.647000
H      0.454000    -1.516000     6.613000
H      0.328000    -3.549000     7.616000
