 xtb: 6.7.1 (edcfbbe)
          04112511203D

 21 20  0     0  0            999 V2000
   -2.2891    1.0948    0.1885 C   0  0  0  0  0  0  0  0  0  0  0  0
   -1.8100   -0.3521    0.1594 C   0  0  0  0  0  0  0  0  0  0  0  0
   -0.5588   -0.6084   -0.6864 C   0  0  0  0  0  0  0  0  0  0  0  0
    0.7872   -0.1486   -0.0833 C   0  0  0  0  0  0  0  0  0  0  0  0
    1.0622    1.3381   -0.3442 C   0  0  0  0  0  0  0  0  0  0  0  0
    1.9153   -0.9738   -0.7234 C   0  0  0  0  0  0  0  0  0  0  0  0
    0.7387   -0.4070    1.3159 O   0  0  0  0  0  0  0  0  0  0  0  0
   -2.3231    1.5095   -0.8166 H   0  0  0  0  0  0  0  0  0  0  0  0
   -1.6390    1.7121    0.8014 H   0  0  0  0  0  0  0  0  0  0  0  0
   -3.2890    1.1431    0.6141 H   0  0  0  0  0  0  0  0  0  0  0  0
   -1.6181   -0.6934    1.1773 H   0  0  0  0  0  0  0  0  0  0  0  0
   -2.6099   -0.9708   -0.2549 H   0  0  0  0  0  0  0  0  0  0  0  0
   -0.4926   -1.6884   -0.8352 H   0  0  0  0  0  0  0  0  0  0  0  0
   -0.6757   -0.1430   -1.6660 H   0  0  0  0  0  0  0  0  0  0  0  0
    2.0564    1.6027    0.0118 H   0  0  0  0  0  0  0  0  0  0  0  0
    0.3377    1.9611    0.1692 H   0  0  0  0  0  0  0  0  0  0  0  0
    1.0119    1.5455   -1.4089 H   0  0  0  0  0  0  0  0  0  0  0  0
    2.8876   -0.6252   -0.3809 H   0  0  0  0  0  0  0  0  0  0  0  0
    1.8760   -0.8842   -1.8050 H   0  0  0  0  0  0  0  0  0  0  0  0
    1.8075   -2.0217   -0.4527 H   0  0  0  0  0  0  0  0  0  0  0  0
    1.5870   -0.1584    1.7060 H   0  0  0  0  0  0  0  0  0  0  0  0
  1  2  1  0  0  0  0
  2  3  1  0  0  0  0
  3  4  1  0  0  0  0
  4  5  1  0  0  0  0
  4  6  1  0  0  0  0
  4  7  1  0  0  0  0
  1  8  1  0  0  0  0
  1  9  1  0  0  0  0
  1 10  1  0  0  0  0
  2 11  1  0  0  0  0
  2 12  1  0  0  0  0
  3 13  1  0  0  0  0
  3 14  1  0  0  0  0
  5 15  1  0  0  0  0
  5 16  1  0  0  0  0
  5 17  1  0  0  0  0
  6 18  1  0  0  0  0
  6 19  1  0  0  0  0
  6 20  1  0  0  0  0
  7 21  1  0  0  0  0
M  END
