  15
 
 C         -2.0998967100        0.4553593733       -0.4896592511
 C         -1.0806938185       -0.0220827095        0.5457219008
 C          0.0231385061       -0.7898108090       -0.1130700907
 C          1.2955606296       -0.4419123424       -0.2287651321
 C          1.9560090428        0.7947144309        0.2863827012
 H         -2.9181908119        0.9838103400       -0.0052102867
 H         -2.5113006975       -0.3897214242       -1.0383434007
 H         -1.6258377302        1.1279381105       -1.2019429212
 H         -0.6911052253        0.8358826600        1.0932155870
 H         -1.5835163854       -0.6764590297        1.2639089536
 H         -0.2977311801       -1.7248751321       -0.5568221112
 H          1.9684323507       -1.1147905284       -0.7472270933
 H          2.7099277436        0.5300799324        1.0279794140
 H          1.2498485996        1.4830902513        0.7400632629
 H          2.4654449682        1.3070703233       -0.5295558868
          15
        -15.77391614
 C         -2.1575452286        0.3226360458       -0.4250556892
 C         -1.0283626953        0.1609395544        0.5931104373
 C          0.0008504147       -0.8058881982        0.0955611767
 C          1.2735571287       -0.5670642497       -0.1806791803
 C          2.0115337970        0.7253627223       -0.0509074559
 H         -2.6268306649       -0.6372213700       -0.6300584138
 H         -1.7677674580        0.7196203668       -1.3598264643
 H         -2.9166704475        1.0045984436       -0.0483357439
 H         -0.5860386068        1.1347767366        0.8009825933
 H         -1.4464713590       -0.2229156666        1.5286201703
 H         -0.3816438652       -1.8073407374       -0.0617270884
 H          1.8850072049       -1.3854801253       -0.5421272518
 H          2.4547338013        0.9937338179       -1.0099188192
 H          2.8245483460        0.6167668215        0.6674470563
 H          1.3690491455        1.5379945640        0.2732555153
