 31

C     -4.026000    -8.653000     6.559000
C     -3.798000    -7.969000     5.220000
C     -2.852000    -6.776000     5.355000
C     -2.625000    -6.091000     4.006000
C     -1.678000    -4.897000     4.141000
C     -1.451000    -4.213000     2.792000
C     -0.505000    -3.019000     2.926000
C     -0.278000    -2.335000     1.579000
C      0.658000    -1.145000     1.681000
O      1.169000    -0.785000     2.741000
C      0.936000    -0.408000     0.396000
H     -4.704000    -9.505000     6.453000
H     -4.471000    -7.951000     7.271000
H     -3.083000    -9.014000     6.981000
H     -4.761000    -7.637000     4.817000
H     -3.383000    -8.695000     4.512000
H     -1.891000    -7.113000     5.762000
H     -3.269000    -6.054000     6.068000
H     -2.207000    -6.813000     3.293000
H     -3.586000    -5.754000     3.599000
H     -0.717000    -5.234000     4.548000
H     -2.096000    -4.176000     4.853000
H     -2.412000    -3.875000     2.385000
H     -1.033000    -4.934000     2.079000
H     -0.919000    -2.297000     3.641000
H      0.456000    -3.353000     3.336000
H     -1.233000    -1.979000     1.176000
H      0.157000    -3.046000     0.869000
H      0.200000     0.388000     0.264000
H      1.945000     0.011000     0.426000
H      0.865000    -1.099000    -0.448000
