  31
 
 C         -4.0260000000       -8.6530000000        6.5590000000
 C         -3.7980000000       -7.9690000000        5.2200000000
 C         -2.8520000000       -6.7760000000        5.3550000000
 C         -2.6250000000       -6.0910000000        4.0060000000
 C         -1.6780000000       -4.8970000000        4.1410000000
 C         -1.4510000000       -4.2130000000        2.7920000000
 C         -0.5050000000       -3.0190000000        2.9260000000
 C         -0.2780000000       -2.3350000000        1.5790000000
 C          0.6580000000       -1.1450000000        1.6810000000
 O          1.1690000000       -0.7850000000        2.7410000000
 C          0.9360000000       -0.4080000000        0.3960000000
 H         -4.7040000000       -9.5050000000        6.4530000000
 H         -4.4710000000       -7.9510000000        7.2710000000
 H         -3.0830000000       -9.0140000000        6.9810000000
 H         -4.7610000000       -7.6370000000        4.8170000000
 H         -3.3830000000       -8.6950000000        4.5120000000
 H         -1.8910000000       -7.1130000000        5.7620000000
 H         -3.2690000000       -6.0540000000        6.0680000000
 H         -2.2070000000       -6.8130000000        3.2930000000
 H         -3.5860000000       -5.7540000000        3.5990000000
 H         -0.7170000000       -5.2340000000        4.5480000000
 H         -2.0960000000       -4.1760000000        4.8530000000
 H         -2.4120000000       -3.8750000000        2.3850000000
 H         -1.0330000000       -4.9340000000        2.0790000000
 H         -0.9190000000       -2.2970000000        3.6410000000
 H          0.4560000000       -3.3530000000        3.3360000000
 H         -1.2330000000       -1.9790000000        1.1760000000
 H          0.1570000000       -3.0460000000        0.8690000000
 H          0.2000000000        0.3880000000        0.2640000000
 H          1.9450000000        0.0110000000        0.4260000000
 H          0.8650000000       -1.0990000000       -0.4480000000
