 xtb: 6.7.1 (edcfbbe)
          04112510353D

 18 17  0     0  0            999 V2000
   -2.2239   -0.8019    0.1268 C   0  0  0  0  0  0  0  0  0  0  0  0
   -1.4723    0.5213    0.2199 C   0  0  0  0  0  0  0  0  0  0  0  0
   -0.2556    0.6076   -0.7209 C   0  0  0  0  0  0  0  0  0  0  0  0
    1.0269    0.1500   -0.0803 C   0  0  0  0  0  0  0  0  0  0  0  0
    1.9627    1.0159    0.2780 C   0  0  0  0  0  0  0  0  0  0  0  0
    1.1914   -1.3222    0.1460 C   0  0  0  0  0  0  0  0  0  0  0  0
   -1.5913   -1.6396    0.4039 H   0  0  0  0  0  0  0  0  0  0  0  0
   -2.5799   -0.9627   -0.8887 H   0  0  0  0  0  0  0  0  0  0  0  0
   -3.0845   -0.7908    0.7922 H   0  0  0  0  0  0  0  0  0  0  0  0
   -2.1656    1.3256   -0.0350 H   0  0  0  0  0  0  0  0  0  0  0  0
   -1.1423    0.6887    1.2474 H   0  0  0  0  0  0  0  0  0  0  0  0
   -0.4540    0.0097   -1.6133 H   0  0  0  0  0  0  0  0  0  0  0  0
   -0.1291    1.6451   -1.0353 H   0  0  0  0  0  0  0  0  0  0  0  0
    2.8831    0.7016    0.7415 H   0  0  0  0  0  0  0  0  0  0  0  0
    1.8484    2.0761    0.1251 H   0  0  0  0  0  0  0  0  0  0  0  0
    0.5675   -1.6459    0.9781 H   0  0  0  0  0  0  0  0  0  0  0  0
    0.8929   -1.8815   -0.7382 H   0  0  0  0  0  0  0  0  0  0  0  0
    2.2241   -1.5621    0.3856 H   0  0  0  0  0  0  0  0  0  0  0  0
  1  2  1  0  0  0  0
  2  3  1  0  0  0  0
  3  4  1  0  0  0  0
  4  5  2  0  0  0  0
  4  6  1  0  0  0  0
  1  7  1  0  0  0  0
  1  8  1  0  0  0  0
  1  9  1  0  0  0  0
  2 10  1  0  0  0  0
  2 11  1  0  0  0  0
  3 12  1  0  0  0  0
  3 13  1  0  0  0  0
  5 14  1  0  0  0  0
  5 15  1  0  0  0  0
  6 16  1  0  0  0  0
  6 17  1  0  0  0  0
  6 18  1  0  0  0  0
M  END
