 xtb: 6.7.1 (edcfbbe)
          04112511193D

 14 13  0     0  0            999 V2000
   -1.1445    0.1171   -0.4616 C   0  0  0  0  0  0  0  0  0  0  0  0
    0.0899    0.6287    0.3007 C   0  0  0  0  0  0  0  0  0  0  0  0
    1.3531   -0.1532   -0.0943 C   0  0  0  0  0  0  0  0  0  0  0  0
    1.1747   -1.5446   -0.1197 O   0  0  0  0  0  0  0  0  0  0  0  0
    0.3664    1.9847    0.0366 O   0  0  0  0  0  0  0  0  0  0  0  0
   -1.7064   -0.9353    0.2913 O   0  0  0  0  0  0  0  0  0  0  0  0
   -0.8446   -0.2242   -1.4584 H   0  0  0  0  0  0  0  0  0  0  0  0
   -1.8659    0.9390   -0.5707 H   0  0  0  0  0  0  0  0  0  0  0  0
   -0.1110    0.4738    1.3723 H   0  0  0  0  0  0  0  0  0  0  0  0
    2.1691    0.1312    0.5837 H   0  0  0  0  0  0  0  0  0  0  0  0
    1.6346    0.1400   -1.1089 H   0  0  0  0  0  0  0  0  0  0  0  0
    0.8172   -1.8372    0.7306 H   0  0  0  0  0  0  0  0  0  0  0  0
   -0.3307    2.5410    0.4128 H   0  0  0  0  0  0  0  0  0  0  0  0
   -2.4019   -1.3649   -0.2241 H   0  0  0  0  0  0  0  0  0  0  0  0
  1  2  1  0  0  0  0
  2  3  1  0  0  0  0
  3  4  1  0  0  0  0
  2  5  1  0  0  0  0
  1  6  1  0  0  0  0
  1  7  1  0  0  0  0
  1  8  1  0  0  0  0
  2  9  1  0  0  0  0
  3 10  1  0  0  0  0
  3 11  1  0  0  0  0
  4 12  1  0  0  0  0
  5 13  1  0  0  0  0
  6 14  1  0  0  0  0
M  END
