  22
 
 C          1.5494587528        0.0561594021       -1.8963589765
 C          2.9209097726       -0.0015337754       -2.0584600616
 C          3.7523479741        0.0642481984       -0.9505363526
 C          3.2119926273        0.1893627485        0.3288934587
 C          1.8280872167        0.2455069930        0.4789743449
 C          0.9901523097        0.1800200259       -0.6318683825
 C         -0.4794640655        0.2218355650       -0.4439555930
 C         -1.1629829253        1.4280215396       -0.4528051717
 C         -2.5354986405        1.4593100336       -0.2616304586
 C         -3.2456140798        0.2765046186       -0.0588667865
 C         -2.5637974987       -0.9403602044       -0.0481070449
 C         -1.1838166457       -0.9630986120       -0.2396000698
 Cl        -0.3390022096       -2.4585771351       -0.2211500757
 Cl        -3.4238653680       -2.4007596653        0.2005593165
 Cl        -4.9427911360        0.3095059444        0.1757648354
 Cl        -3.3645722006        2.9610536613       -0.2737524677
 Cl         1.1393024353        0.3938835662        2.0476016814
 Cl         4.2344212306        0.2713321944        1.7039398880
 Cl         5.4562193561       -0.0089099727       -1.1518688505
 H          0.8995098825        0.0005575241       -2.7550753268
 H          3.3548106404       -0.1006686136       -3.0401168490
 H         -0.6225156644        2.3484945981       -0.6040481881
          22
        -59.10371059
 C          1.5485597800       -1.1699189293        1.3553250885
 C          2.9154751832       -1.3255643701        1.4738918476
 C          3.7695920136       -0.5448859375        0.7090278921
 C          3.2516263875        0.3971250003       -0.1785198517
 C          1.8703280803        0.5488909345       -0.2864800921
 C          1.0070363095       -0.2340411539        0.4801290981
 C         -0.4566491513       -0.0721995818        0.3648322895
 C         -1.0519383500        1.1443634352        0.6744103913
 C         -2.4229313218        1.3090668170        0.5723636216
 C         -3.2296412395        0.2514815698        0.1527525586
 C         -2.6413864386       -0.9727465536       -0.1628806984
 C         -1.2607142249       -1.1323163653       -0.0550002007
 Cl        -0.5537075188       -2.6388484259       -0.4835543552
 Cl        -3.6208310635       -2.2781748087       -0.6861349669
 Cl        -4.9262877351        0.4480576180        0.0219962971
 Cl        -3.1327756677        2.8208571841        0.9639617370
 Cl         1.2361150629        1.6887061492       -1.4080887059
 Cl         4.3031711585        1.3608978304       -1.1331312548
 Cl         5.4692741155       -0.7386820852        0.8518014834
 H          0.8850254371       -1.7731909805        1.9539361254
 H          3.3292250765       -2.0510650188        2.1552166663
 H         -0.4412330629        1.9689371645        1.0049030967
