  5
 
 C         -0.8711908250        0.0000219846        0.0000521693
 F         -1.3239650295       -1.2211886022       -0.2062257161
 F         -1.3238133181        0.4319697255        1.1608556134
 F         -1.3239966329        0.7893016300       -0.9543684527
 Br         1.0684715650       -0.0001059596       -0.0002712263
           5
        -20.41139565
 C         -0.8674110060        0.0000290633       -0.0000576704
 F         -1.3203098945       -0.1230596032        1.2323690794
 F         -1.3201494096        1.1288131247       -0.5096451821
 F         -1.3201351011       -1.0057661785       -0.7227813355
 Br         1.0720793745       -0.0000013593        0.0000223257
