 xtb: 6.7.1 (edcfbbe)
          04112511043D

 24 24  0     0  0            999 V2000
    2.6671    0.2136   -1.4995 C   0  0  0  0  0  0  0  0  0  0  0  0
    2.2389    0.9561   -0.2349 C   0  0  0  0  0  0  0  0  0  0  0  0
    1.3361    0.1571    0.7181 C   0  0  0  0  0  0  0  0  0  0  0  0
    1.3699    0.6714    1.6881 H   0  0  0  0  0  0  0  0  0  0  0  0
    1.8761   -1.2627    0.9324 C   0  0  0  0  0  0  0  0  0  0  0  0
   -0.1249    0.0968    0.3226 C   0  0  0  0  0  0  0  0  0  0  0  0
   -1.0325   -0.4158    1.2477 C   0  0  0  0  0  0  0  0  0  0  0  0
   -2.3795   -0.5148    0.9570 C   0  0  0  0  0  0  0  0  0  0  0  0
   -2.8568   -0.0921   -0.2726 C   0  0  0  0  0  0  0  0  0  0  0  0
   -1.9722    0.4368   -1.1938 C   0  0  0  0  0  0  0  0  0  0  0  0
   -0.6213    0.5317   -0.8990 C   0  0  0  0  0  0  0  0  0  0  0  0
    3.3714   -0.5787   -1.2612 H   0  0  0  0  0  0  0  0  0  0  0  0
    1.8182   -0.2310   -2.0113 H   0  0  0  0  0  0  0  0  0  0  0  0
    3.1576    0.9042   -2.1823 H   0  0  0  0  0  0  0  0  0  0  0  0
    3.1417    1.2358    0.3139 H   0  0  0  0  0  0  0  0  0  0  0  0
    1.7298    1.8841   -0.5035 H   0  0  0  0  0  0  0  0  0  0  0  0
    2.9311   -1.2252    1.1932 H   0  0  0  0  0  0  0  0  0  0  0  0
    1.3424   -1.7593    1.7383 H   0  0  0  0  0  0  0  0  0  0  0  0
    1.7557   -1.8582    0.0316 H   0  0  0  0  0  0  0  0  0  0  0  0
   -0.6784   -0.7354    2.2175 H   0  0  0  0  0  0  0  0  0  0  0  0
   -3.0602   -0.9184    1.6924 H   0  0  0  0  0  0  0  0  0  0  0  0
   -3.9085   -0.1677   -0.5053 H   0  0  0  0  0  0  0  0  0  0  0  0
   -2.3327    0.7818   -2.1521 H   0  0  0  0  0  0  0  0  0  0  0  0
    0.0342    0.9612   -1.6386 H   0  0  0  0  0  0  0  0  0  0  0  0
  1  2  1  0  0  0  0
  2  3  1  0  0  0  0
  3  4  1  0  0  0  0
  3  5  1  0  0  0  0
  3  6  1  0  0  0  0
  6  7  4  0  0  0  0
  7  8  4  0  0  0  0
  8  9  4  0  0  0  0
  9 10  4  0  0  0  0
  6 11  4  0  0  0  0
 10 11  4  0  0  0  0
  1 12  1  0  0  0  0
  1 13  1  0  0  0  0
  1 14  1  0  0  0  0
  2 15  1  0  0  0  0
  2 16  1  0  0  0  0
  5 17  1  0  0  0  0
  5 18  1  0  0  0  0
  5 19  1  0  0  0  0
  7 20  1  0  0  0  0
  8 21  1  0  0  0  0
  9 22  1  0  0  0  0
 10 23  1  0  0  0  0
 11 24  1  0  0  0  0
M  END
