 xtb: 6.7.1 (edcfbbe)
          04112512203D

 18 17  0     0  0            999 V2000
   -1.9694    1.4543    0.0742 C   0  0  0  0  0  0  0  0  0  0  0  0
   -1.4929    0.0747   -0.3676 C   0  0  0  0  0  0  0  0  0  0  0  0
   -0.1521   -0.3434    0.2453 C   0  0  0  0  0  0  0  0  0  0  0  0
   -0.1601   -0.1230    1.3180 H   0  0  0  0  0  0  0  0  0  0  0  0
    0.0794   -1.8424    0.0603 C   0  0  0  0  0  0  0  0  0  0  0  0
    1.0143    0.4357   -0.3693 C   0  0  0  0  0  0  0  0  0  0  0  0
    2.1947    0.1469    0.3563 O   0  0  0  0  0  0  0  0  0  0  0  0
   -2.9544    1.6584   -0.3381 H   0  0  0  0  0  0  0  0  0  0  0  0
   -2.0338    1.5032    1.1586 H   0  0  0  0  0  0  0  0  0  0  0  0
   -1.2933    2.2347   -0.2648 H   0  0  0  0  0  0  0  0  0  0  0  0
   -1.4118    0.0458   -1.4566 H   0  0  0  0  0  0  0  0  0  0  0  0
   -2.2428   -0.6620   -0.0728 H   0  0  0  0  0  0  0  0  0  0  0  0
   -0.6766   -2.4143    0.5919 H   0  0  0  0  0  0  0  0  0  0  0  0
    1.0586   -2.1132    0.4468 H   0  0  0  0  0  0  0  0  0  0  0  0
    0.0362   -2.1034   -0.9951 H   0  0  0  0  0  0  0  0  0  0  0  0
    0.8081    1.5126   -0.3267 H   0  0  0  0  0  0  0  0  0  0  0  0
    1.1321    0.1425   -1.4218 H   0  0  0  0  0  0  0  0  0  0  0  0
    2.9364    0.6227   -0.0392 H   0  0  0  0  0  0  0  0  0  0  0  0
  1  2  1  0  0  0  0
  2  3  1  0  0  0  0
  3  4  1  0  0  0  0
  3  5  1  0  0  0  0
  3  6  1  0  0  0  0
  6  7  1  0  0  0  0
  1  8  1  0  0  0  0
  1  9  1  0  0  0  0
  1 10  1  0  0  0  0
  2 11  1  0  0  0  0
  2 12  1  0  0  0  0
  5 13  1  0  0  0  0
  5 14  1  0  0  0  0
  5 15  1  0  0  0  0
  6 16  1  0  0  0  0
  6 17  1  0  0  0  0
  7 18  1  0  0  0  0
M  END
