17
 xtb: 6.7.1 (edcfbbe)
C           -2.56669479169482        0.51284159201603        0.89047662690052
C           -1.78447469246325        0.49314285592385       -0.43025917504823
C           -0.55048515231903       -0.34765462702877       -0.27532210282243
O           -0.54585956764454       -1.56984881934665       -0.26393834779842
O            0.55784909328043        0.39306177131900       -0.10129722405988
C            1.80249179286523       -0.34226020205789        0.13467642664444
C            2.89636408696120        0.67983469165073        0.30696492248834
H           -3.47608951898861        1.10744360180232        0.77333371995985
H           -2.85292348103865       -0.49941364361152        1.18874948355694
H           -1.96782049758809        0.95592375400311        1.69164132194137
H           -1.51105806041774        1.50789030042240       -0.72754666082458
H           -2.39453405843123        0.04374450968350       -1.21910127513009
H            1.67032042645822       -0.95834288755594        1.02862340190044
H            1.98349417324020       -0.99551204295788       -0.72375405253446
H            2.69701101543123        1.33011226435292        1.16374118183261
H            3.84350231660985        0.16115729514820        0.48171985074736
H            3.00326753749488        1.29608954566658       -0.59039467491980
