 19

C      0.860000    -0.576000    -0.365000
C      1.998000    -0.482000     0.648000
C      2.555000     0.935000     0.737000
C      2.975000     1.461000    -0.634000
C      1.834000     1.368000    -1.646000
C      1.277000    -0.049000    -1.736000
O      3.401000     2.814000    -0.517000
H      0.000000    -0.000000     0.000000
H      0.530000    -1.617000    -0.454000
H      1.643000    -0.803000     1.634000
H      2.801000    -1.171000     0.358000
H      1.803000     1.603000     1.176000
H      3.410000     0.962000     1.423000
H      3.835000     0.875000    -0.998000
H      1.034000     2.067000    -1.367000
H      2.183000     1.697000    -2.633000
H      0.417000    -0.066000    -2.415000
H      2.038000    -0.713000    -2.165000
H      3.656000     3.104000    -1.407000
