  15
 
 C          2.5602859257       -0.3235565805       -0.0022153512
 C          1.2966973365        0.5282274818        0.0004503828
 C          0.0385255834       -0.3343013355       -0.0003649353
 C         -1.2331923947        0.5070189875        0.0004711128
 O         -2.3446907169       -0.3631602426       -0.0000944190
 H          3.4465540920        0.3067459014        0.0001737528
 H          2.5902835809       -0.9628395325        0.8771869484
 H          2.5907451925       -0.9566956124       -0.8860095756
 H          1.2939009216        1.1715832473        0.8835185603
 H          1.2925513460        1.1752498703       -0.8799212839
 H          0.0250977163       -0.9773691843       -0.8816597538
 H          0.0251227898       -0.9790519309        0.8797017080
 H         -1.2513222935        1.1524362136        0.8915676078
 H         -1.2515386856        1.1538848797       -0.8895757949
 H         -3.1547386652        0.1564873454        0.0003330822
          15
        -17.72299703
 C          2.4229013788       -0.1885763906        0.1572699833
 C          1.0041690789       -0.3001018807       -0.3855666308
 C          0.0693955845        0.7290524303        0.2461932194
 C         -1.3744384690        0.5531135376       -0.2264086189
 O         -1.9212080563       -0.6955717582        0.1257179390
 H          2.8299336216        0.8012486983       -0.0390683179
 H          2.4376088958       -0.3562289146        1.2323848770
 H          3.0701026819       -0.9251638967       -0.3125775443
 H          1.0142743454       -0.1544253158       -1.4676848368
 H          0.6126258216       -1.3007481908       -0.1918256880
 H          0.1029205181        0.6304350374        1.3358180674
 H          0.4000693684        1.7380526274       -0.0071911528
 H         -1.9959139635        1.3675633410        0.1765736718
 H         -1.4217909443        0.5914741550       -1.3171651927
 H         -1.8404812090       -0.8065839038        1.0798983380
