  23
 
 C          4.7133305869        0.3176702980        0.0026723222
 C          3.4496718225       -0.5337845224        0.0006911205
 C          2.1884276489        0.3271091675        0.0019935367
 C          0.9199647332       -0.5216571089       -0.0010593361
 C         -0.3291953990        0.3461693215       -0.0004800918
 O         -1.4761936746       -0.5049195919       -0.0193521305
 C         -2.6677269231        0.0997287672       -0.0172384366
 O         -2.8087314903        1.2939845613       -0.0073685535
 C         -3.7863119991       -0.9093844354       -0.0103492000
 H          5.5994913968       -0.3123796994        0.0002957735
 H          4.7438834319        0.9566662721       -0.8770509027
 H          4.7448329571        0.9513809699        0.8861666804
 H          3.4459735596       -1.1803105544        0.8808354180
 H          3.4464692016       -1.1766375007       -0.8821554418
 H          2.1912847032        0.9704942573        0.8846539076
 H          2.1924480912        0.9742960375       -0.8778804775
 H          0.9011439264       -1.1673970061        0.8786357025
 H          0.9026671429       -1.1623089561       -0.8845260240
 H         -0.3591835160        0.9998436599       -0.8797625056
 H         -0.3723109923        0.9811972364        0.8917662479
 H         -4.0303464910       -1.1489881791        1.0230149847
 H         -3.4740388364       -1.8176970413       -0.5158280263
 H         -4.6650014685       -0.4832102669       -0.4847836205
          23
        -30.28127991
 C          3.9105290307       -1.0198004755        0.0053604199
 C          2.8954389543       -0.0411532497       -0.5720671666
 C          1.6931639644        0.1372973046        0.3514013937
 C          0.6779295807        1.1252464962       -0.2181649965
 C         -0.5430042368        1.2774805891        0.6855175442
 O         -1.2534039190        0.0471840609        0.8260895539
 C         -2.1302660635       -0.2659496139       -0.1334249758
 O         -2.3761674856        0.4358547702       -1.0781953240
 C         -2.7577225212       -1.6098121549        0.1335689793
 H          4.7587544988       -1.1322081783       -0.6657162615
 H          4.2778944477       -0.6659638449        0.9662336505
 H          3.4572435985       -1.9976692763        0.1523362418
 H          2.5537470412       -0.4033764230       -1.5441199713
 H          3.3743910264        0.9277288707       -0.7306819643
 H          1.2066628830       -0.8282128706        0.5056940653
 H          2.0352232950        0.4946306690        1.3257514560
 H          0.3434826460        0.7895277414       -1.2018548797
 H          1.1387473298        2.1075623736       -0.3365068095
 H         -1.2221847801        2.0315513088        0.2740902409
 H         -0.2471130784        1.5534224656        1.6998641155
 H         -2.6941140137       -1.8514448682        1.1896513475
 H         -2.2174730383       -2.3631839671       -0.4368988990
 H         -3.7908264242       -1.6028091083       -0.2012428920
