 23

C      0.790000    -0.389000     0.649000
C      1.617000    -1.442000    -0.070000
C      2.294000    -0.869000    -1.315000
C      3.124000    -1.929000    -2.035000
C      3.801000    -1.366000    -3.276000
O      4.554000    -2.399000    -3.897000
C      5.226000    -2.045000    -5.034000
O      5.233000    -0.936000    -5.551000
C      5.972000    -3.227000    -5.575000
H      0.309000    -0.808000     1.539000
H      1.414000     0.455000     0.961000
H      0.006000    -0.006000    -0.011000
H      0.968000    -2.280000    -0.351000
H      2.375000    -1.835000     0.618000
H      1.532000    -0.472000    -1.998000
H      2.939000    -0.029000    -1.028000
H      2.490000    -2.778000    -2.321000
H      3.885000    -2.339000    -1.359000
H      4.481000    -0.549000    -3.013000
H      3.060000    -0.997000    -3.992000
H      5.337000    -3.778000    -6.274000
H      6.291000    -3.873000    -4.753000
H      6.861000    -2.881000    -6.111000
