20
 xtb: 6.7.1 (edcfbbe)
C           -2.57155066836460       -0.15183111289363       -0.26462544705041
C           -1.25509934851457       -0.67499660763948        0.30547442198746
C            0.00006714971822        0.03285206111385       -0.22562237780861
C           -0.00064530586735        1.52062675368674        0.12984837995155
C            1.25552995038180       -0.67399659803009        0.30611827527548
C            2.57171715418059       -0.15139110827041       -0.26512380640323
H           -2.76784013857329        0.88056484679575        0.04010859107019
H           -2.56345577094748       -0.18234277252668       -1.36033303152192
H           -3.41429884424258       -0.76031437357440        0.07950917408014
H           -1.16944357319154       -1.74551604720915        0.07838542385503
H           -1.26847078575170       -0.59023273174575        1.40132595727352
H            0.00039002306443       -0.05974270627487       -1.32303913497455
H            0.88003687652372        2.03199249705433       -0.27012016922192
H           -0.00228402034428        1.65270223900636        1.21958815469140
H           -0.88025753278426        2.03176807984844       -0.27273830404860
H            1.26920007304653       -0.58774632802574        1.40184680144690
H            1.17005546372314       -1.74484293082090        0.08050698876697
H            2.76778210518111        0.88158720350400        0.03778298017489
H            2.56338152261185       -0.18380220013241       -1.36077678163751
H            3.41473834398684       -0.75903510154944        0.07986171864095
