  27
 
 C         -0.8980000000        3.6490000000       -2.4910000000
 C         -0.8410000000        2.1940000000       -2.9280000000
 C         -0.0260000000        2.0260000000       -4.2110000000
 C          0.0280000000        0.5580000000       -4.6460000000
 C          0.8340000000        0.3370000000       -5.9300000000
 C          0.8890000000       -1.0980000000       -6.3590000000
 C          1.9170000000       -1.9230000000       -5.9020000000
 C          1.9690000000       -3.2580000000       -6.3020000000
 C          0.9940000000       -3.7680000000       -7.1580000000
 C         -0.0350000000       -2.9430000000       -7.6140000000
 C         -0.0870000000       -1.6080000000       -7.2150000000
 H         -1.4830000000        3.7600000000       -1.5720000000
 H          0.1110000000        4.0280000000       -2.3000000000
 H         -1.3540000000        4.2740000000       -3.2660000000
 H         -0.3970000000        1.5940000000       -2.1250000000
 H         -1.8610000000        1.8250000000       -3.0830000000
 H          0.9880000000        2.4070000000       -4.0440000000
 H         -0.4730000000        2.6310000000       -5.0110000000
 H          0.4340000000       -0.0510000000       -3.8300000000
 H         -0.9960000000        0.2050000000       -4.8230000000
 H          1.8500000000        0.7310000000       -5.8080000000
 H          0.3780000000        0.9170000000       -6.7420000000
 H          2.6820000000       -1.5330000000       -5.2350000000
 H          2.7700000000       -3.9000000000       -5.9460000000
 H          1.0340000000       -4.8080000000       -7.4690000000
 H         -0.7940000000       -3.3410000000       -8.2810000000
 H         -0.8920000000       -0.9730000000       -7.5750000000
