  20
 
 C         -2.7325971426       -0.2698414802       -0.0133904114
 C         -2.3563747098        1.0794975165        0.0273196619
 C         -1.0337572013        1.4278256892        0.0447678865
 C         -0.0186007675        0.4492336877        0.0218059576
 C         -0.4020000442       -0.9190679626       -0.0067991511
 C         -1.7751664705       -1.2435180554       -0.0274278597
 C          0.5846487942       -1.9254382263       -0.0081926322
 C          1.9095451317       -1.5896303902        0.0176226929
 C          2.3015980043       -0.2496612000        0.0301407111
 C          1.3718749611        0.7702367448        0.0278470600
 N          1.7958201015        2.0822756042        0.1004878632
 H         -3.7810300086       -0.5301993759       -0.0292299233
 H         -3.1190799148        1.8445105146        0.0472989693
 H         -0.7716574049        2.4750786758        0.0912789620
 H         -2.0547079198       -2.2873961026       -0.0523232715
 H          0.2753024071       -2.9599031598       -0.0271794226
 H          2.6692039164       -2.3578704876        0.0197795723
 H          3.3542492981       -0.0025655765        0.0409811113
 H          1.1756748013        2.7866478054       -0.2619843525
 H          2.7664010980        2.2347531881       -0.1233181795
          20
        -28.90974314
 C         -2.7331628949       -0.2598632392        0.0041382967
 C         -2.3491224828        1.0878364231       -0.0100317610
 C         -1.0244416065        1.4287854449       -0.0108821505
 C         -0.0149429317        0.4443338970        0.0032329059
 C         -0.4061533863       -0.9221227916        0.0061353423
 C         -1.7811685562       -1.2389582728        0.0097473430
 C          0.5750034918       -1.9338017641       -0.0005586427
 C          1.9018985870       -1.6050493488       -0.0109935894
 C          2.3013941538       -0.2673070987       -0.0000527343
 C          1.3774012739        0.7576307153        0.0120691793
 N          1.8081966464        2.0685686120       -0.0362740359
 H         -3.7830764631       -0.5147404897        0.0063678200
 H         -3.1072384291        1.8575814797       -0.0229079575
 H         -0.7560977277        2.4752405786       -0.0374252054
 H         -2.0666445423       -2.2815774530        0.0143656554
 H          0.2598754540       -2.9667286316       -0.0001365872
 H          2.6571936453       -2.3775524594       -0.0187141650
 H          3.3554185828       -0.0257189563        0.0004678961
 H          2.7801581439        2.2111066174        0.1877968950
 H          1.1925578691        2.7692948791        0.3408656983
