 20

C     -0.497000    -2.034000     0.494000
C      0.350000    -1.028000     0.039000
C      1.648000    -1.337000    -0.366000
C      2.117000    -2.660000    -0.322000
C      1.256000    -3.684000     0.140000
C     -0.048000    -3.354000     0.545000
C      1.724000    -5.007000     0.185000
C      3.023000    -5.317000    -0.221000
C      3.869000    -4.310000    -0.676000
C      3.421000    -2.990000    -0.727000
N      4.323000    -2.005000    -1.197000
H     -1.507000    -1.792000     0.810000
H     -0.000000     0.000000     0.000000
H      2.278000    -0.522000    -0.715000
H     -0.727000    -4.125000     0.903000
H      1.081000    -5.810000     0.537000
H      3.373000    -6.344000    -0.183000
H      4.879000    -4.565000    -0.989000
H      4.006000    -1.063000    -1.285000
H      5.223000    -2.290000    -1.518000
