  8
 
 C         -1.1401535432       -1.5103917586        0.0056635775
 S         -0.4681526438        0.1562693772        0.0051742911
 O         -0.7328901945        0.7983574538        1.2491392176
 O         -0.7995720437        0.8241077837       -1.2088723367
 Cl         1.5359007527       -0.2494856586       -0.0522754674
 H         -0.8403793076       -1.9880320625       -0.9170754099
 H         -0.7484600598       -2.0253496008        0.8721287113
 H         -2.2177776893       -1.4173132914        0.0634609769
           8
        -19.59222032
 C         -0.9227553240       -1.6248456945        0.0000944502
 S         -0.4632537970        0.1129479253       -0.0000035175
 O         -0.8404344720        0.7261827834        1.2294506051
 O         -0.8405338283        0.7260417856       -1.2294888110
 Cl         1.5764854073       -0.0417060948       -0.0000217941
 H         -2.0048397120       -1.6677210837       -0.0025832364
 H         -0.5141589185       -2.0744927030       -0.8943774658
 H         -0.5185269122       -2.0730500709        0.8973201298
