  26
 
 C         -1.8510547801       -1.3353829793       -0.1643100259
 C         -1.5474579405       -0.0320283714        0.5692493144
 C         -2.1583888870        1.1522755623       -0.1808931516
 C         -0.0661223338        0.1700095965        0.9484839616
 C          1.0900817684        0.0479571511       -0.0701309578
 C          0.8330573504        0.7954268483       -1.3783553028
 C          2.3230057483        0.6745228721        0.6000748738
 C          1.4258792429       -1.4142882239       -0.3800037838
 H         -1.4017863840       -2.1813887510        0.3491907890
 H         -2.9276785259       -1.4925899664       -0.2018821238
 H         -1.4853379540       -1.3069545753       -1.1869990987
 H         -2.0672143260       -0.0835484557        1.5361824913
 H         -1.9028225295        2.0902821146        0.3071901641
 H         -1.8217146803        1.1959783035       -1.2112100418
 H         -3.2432151820        1.0598336090       -0.1881594062
 H         -0.0036004808        1.1687947007        1.3906774739
 H          0.1560079913       -0.5409865474        1.7501001150
 H          1.7417045252        0.8062396754       -1.9785195700
 H          0.5428101395        1.8247966535       -1.1838939010
 H          0.0556544622        0.3127373214       -1.9636754767
 H          3.2025806486        0.5547879954       -0.0289025797
 H          2.5225597050        0.1983444357        1.5577650676
 H          2.1708628786        1.7381758766        0.7717510808
 H          2.3330243121       -1.4656229353       -0.9793060398
 H          0.6323171260       -1.9012637976       -0.9355032513
 H          1.5963099476       -1.9714382073        0.5384032331
          26
        -26.32549975
 C         -2.4308827986       -1.1635295293       -0.0611371903
 C         -1.4283754484       -0.0376524199        0.1915691441
 C         -2.1004794913        1.3110129233       -0.0623954529
 C         -0.1797147244       -0.2185045198       -0.6917524271
 C          1.1851770532       -0.0211047549       -0.0051249151
 C          1.2929861084        1.3594206043        0.6445183280
 C          1.4194527588       -1.1060115591        1.0490624218
 C          2.2730183188       -0.1431604191       -1.0785890775
 H         -2.7388850456       -1.1702652411       -1.1049062922
 H         -1.9920117802       -2.1303029159        0.1758776601
 H         -3.3178601045       -1.0314133432        0.5553372073
 H         -1.1402037322       -0.0809070969        1.2456545637
 H         -2.9534696342        1.4423476809        0.6007989932
 H         -1.4082937698        2.1312021592        0.1063592916
 H         -2.4570040664        1.3674492294       -1.0892870723
 H         -0.1870013070       -1.2275975537       -1.1100250038
 H         -0.2434430603        0.4745137060       -1.5336509014
 H          2.2873132275        1.4985643883        1.0644207028
 H          0.5698239560        1.4746360707        1.4473846095
 H          1.1232104979        2.1419269785       -0.0919085023
 H          1.3644419811       -2.0942326027        0.5974426035
 H          0.6802756800       -1.0530939443        1.8441097085
 H          2.4039768313       -0.9895110834        1.4971827347
 H          3.2605723705       -0.0346344222       -0.6353153786
 H          2.1533777592        0.6278339389       -1.8368480212
 H          2.2235914297       -1.1137836125       -1.5675883400
