 26

C      1.236000     1.742000    -0.083000
C      0.297000     1.074000     0.928000
C      1.140000     0.282000     1.933000
C     -0.719000     0.170000     0.192000
C     -0.138000    -0.995000    -0.660000
C      1.192000    -1.494000    -0.066000
C     -1.148000    -2.162000    -0.624000
C      0.084000    -0.595000    -2.125000
H      0.668000     2.319000    -0.820000
H      1.937000     2.421000     0.413000
H      1.817000     0.990000    -0.628000
H     -0.221000     1.873000     1.469000
H      0.508000    -0.214000     2.678000
H      1.723000    -0.492000     1.421000
H      1.847000     0.922000     2.466000
H     -1.399000    -0.278000     0.930000
H     -1.357000     0.798000    -0.446000
H      1.619000    -2.315000    -0.649000
H      1.050000    -1.865000     0.957000
H      1.934000    -0.689000    -0.025000
H     -0.788000    -3.014000    -1.211000
H     -2.118000    -1.859000    -1.034000
H     -1.315000    -2.511000     0.401000
H      0.493000    -1.432000    -2.704000
H      0.795000     0.233000    -2.215000
H     -0.856000    -0.296000    -2.600000
