18
 xtb: 6.7.1 (edcfbbe)
C            2.21950013732689        0.76173142822032        0.17602514511378
C            1.63371444767562       -0.50525331678245       -0.44557015770581
C            0.25469436127344       -0.92532303253380        0.07301833345244
C           -0.91490252576346       -0.01114073185249       -0.28984090725703
H           -0.82355147867258        0.29805506881373       -1.33875713171879
C           -2.25494454021883       -0.70106014258040       -0.07739973399861
O           -0.88127142450650        1.23291018438466        0.45603858005265
H            1.65775835221856        1.65520542251397       -0.10821132561248
H            3.25640556729975        0.90402886884294       -0.14737329322460
H            2.21608356934087        0.69953370787723        1.27036465028934
H            1.58147108116007       -0.38907466179382       -1.53623581937992
H            2.32607537783296       -1.33600188070412       -0.26059001612009
H            0.02666633125666       -1.91945805259377       -0.33139127837861
H            0.27775415097503       -1.03432844520095        1.16767041248955
H           -2.35336787445741       -1.02779680476772        0.96498929715892
H           -3.08020728982163       -0.02029755435287       -0.30752191795979
H           -2.34499180948803       -1.58190010557726       -0.72114857401108
H           -0.90556635680530        0.99302956680262        1.39274546428405
