17
 xtb: 6.7.1 (edcfbbe)
C           -2.27080686136938        1.24232544010929       -0.14416976675027
C           -1.86551672731630       -0.07487211823911        0.52805216118315
C           -0.55555736670157       -0.58957424104500        0.00220547834818
O           -0.41120183968779       -1.62403837955467       -0.63205098738578
O            0.46222080599622        0.23698921087242        0.29765029720524
C            1.78364800374360       -0.14867490492913       -0.19726058615603
C            2.75311526019079        0.91677565076624        0.24642720894702
H           -1.55671324852543        2.03815097066343        0.08137319699403
H           -2.32717855103086        1.12411812773608       -1.23056322727662
H           -3.25475898182401        1.55286132217829        0.21672280736995
H           -2.61635288830845       -0.84763639889343        0.35174524256577
H           -1.76829678528195        0.07343728981520        1.60925478589133
H            2.03403059939239       -1.12908967417163        0.21881717230180
H            1.73226205839464       -0.22828497370637       -1.28724493688198
H            3.75493609938455        0.65698347915463       -0.10801597210192
H            2.48403438355574        1.89202446685259       -0.16943495767108
H            2.78357600183856        0.99117318052521        1.33723119868386
