17
CONF1
C 2.5278158265 0.7446428299 0.3221119991
C 1.2626050439 -0.1051428587 0.2450696500
C 1.4020234390 -1.1816595175 -0.8289610914
C 0.0485186786 0.7825988988 -0.0465347692
C -1.2601435627 0.0635619904 0.1285353244
O -1.4513806109 -0.8867376787 0.8572214240
O -2.2280498506 0.6026239317 -0.6003592752
H 2.4479681023 1.4865331721 1.1125632594
H 2.6946714679 1.2588968880 -0.6213513616
H 3.3901336684 0.1162620003 0.5280423011
H 1.0962075783 -0.5963280400 1.2097386574
H 2.2568816812 -1.8186970237 -0.6176637361
H 0.5113718118 -1.8056828898 -0.8576147782
H 1.5426597616 -0.7277094907 -1.8074744677
H 0.0865737664 1.1878881234 -1.0582470597
H 0.0315077644 1.6256351682 0.6493241134
H -3.0895684099 0.1604819354 -0.4723462471
17
CONF2
C 2.4592633056 0.9174810669 -0.1440521936
C 1.1964128827 0.1666441146 0.2678731359
C 1.4147579226 -1.3413395643 0.1739784805
C 0.0177690203 0.5950210830 -0.6259697771
C -1.2769918845 0.0170468670 -0.1290431559
O -1.9485727384 -0.8028430944 -0.7206732927
O -1.6263150803 0.4963871506 1.0549485210
H 3.2940416926 0.6165859223 0.4833483211
H 2.3210513163 1.9905664147 -0.0416719027
H 2.7099471386 0.6972250358 -1.1789153505
H 0.9486634836 0.4278415474 1.3018023500
H 0.5107620080 -1.8832470714 0.4449597083
H 1.6842548221 -1.6215675612 -0.8419607742
H 2.2150858687 -1.6508608471 0.8411474132
H 0.1793425405 0.2621553266 -1.6510215027
H -0.0707960740 1.6817772029 -0.6014419089
H -2.4622586577 0.1154651276 1.3860181402
17
CONF9
C 2.5163032365 0.7542292598 0.3209019813
C 1.2540765996 -0.1026980325 0.2628197610
C 1.4363067393 -1.2624886776 -0.7137647987
C 0.0516869916 0.7555673448 -0.1466312610
C -1.2703408563 0.0688724093 0.0891081333
O -1.4144849190 -0.9456515012 0.7312076856
O -2.3381348800 0.6656580798 -0.4455562726
H 2.4073653702 1.5565099445 1.0464118078
H 2.7229908944 1.1907065636 -0.6535027288
H 3.3687487673 0.1460345869 0.6107775963
H 1.0508552549 -0.5168467326 1.2560100049
H 1.6356683613 -0.8911022622 -1.7167948132
H 2.2702110261 -1.8879885496 -0.4066163534
H 0.5403277399 -1.8786688272 -0.7378357159
H 0.1354676312 1.0288657012 -1.2005001798
H 0.0425027419 1.6751779745 0.4452228207
H -2.1298830748 1.4778878445 -0.9424023026
17
CONF3
C 1.9317456320 0.7515073863 0.6538020114
C 1.3494282822 -0.5290132129 0.0629441955
C 1.2470778158 -0.4306223881 -1.4575827351
C -0.0260800645 -0.8518594717 0.6841319897
C -1.0883731475 0.1118832634 0.2312992272
O -1.1755515712 1.2747427565 0.5675246714
O -1.9528433950 -0.4476488074 -0.6020696241
H 2.8752312961 0.9940703704 0.1716910322
H 2.1080135610 0.6367887886 1.7205254643
H 1.2449395531 1.5828149146 0.5101968601
H 2.0131096458 -1.3627578812 0.3141622971
H 2.2379491010 -0.3517316025 -1.8974105116
H 0.7538191404 -1.3080323684 -1.8687575830
H 0.6775383736 0.4519781280 -1.7428798934
H 0.0525960903 -0.7892318010 1.7698798378
H -0.3370038003 -1.8544604765 0.3923840830
H -2.6478137361 0.1697010243 -0.9020450739
17
CONF4
C 1.8506445929 0.6585368266 -0.8482709309
C 1.4048454047 0.0580048321 0.4832878462
C 1.4913332901 -1.4664336371 0.4510779754
C -0.0048779369 0.5277926867 0.8616576880
C -1.1129489014 0.1393317976 -0.0801819233
O -1.0199999824 -0.5020698702 -1.1035815781
O -2.2823917599 0.6006563577 0.3520169645
H 1.2047938502 0.3130187414 -1.6513591358
H 2.8702940059 0.3573525432 -1.0738984482
H 1.8120354598 1.7448665651 -0.8125372508
H 2.0789128048 0.4230715501 1.2667316753
H 2.5087271040 -1.7807338963 0.2332835791
H 1.1977968395 -1.8887736537 1.4093820698
H 0.8365828453 -1.8637823144 -0.3202032246
H -0.0308129139 1.6173692463 0.9374980905
H -0.2813290946 0.1360902667 1.8433694857
H -3.0210805843 0.3628878764 -0.2406488861
17
CONF5
C 1.9164616755 0.7174899363 -0.7365531097
C 1.3953933848 0.0060282908 0.5102531383
C 1.4228517318 -1.5096927337 0.3253956250
C -0.0104160793 0.4912703424 0.8860604829
C -1.1082819437 0.1658719813 -0.0910182006
O -0.9866243635 -0.2232721377 -1.2317933932
O -2.3030467054 0.3752286809 0.4524151777
H 1.9375858597 1.7942312917 -0.5844975218
H 1.2777868725 0.4984723320 -1.5881732605
H 2.9245898492 0.3824157284 -0.9665081318
H 2.0514421692 0.2612962686 1.3502868913
H 2.4379399424 -1.8470870041 0.1334493577
H 1.0546260161 -2.0129770999 1.2164695528
H 0.8011899175 -1.7966797212 -0.5191888462
H -0.0092546098 1.5793481816 0.9920845540
H -0.3126625133 0.0772051011 1.8498989667
H -3.0344787718 0.1892754980 -0.1672890940
17
CONF6
C 1.7356996007 0.6325968879 -0.9522847889
C 1.4137499394 0.0957508094 0.4407151163
C 1.5920900259 -1.4198788585 0.4949309042
C 0.0032396752 0.5129827411 0.8785061269
C -1.1183722681 0.1069937956 -0.0397549852
O -1.1076646012 -0.7826779682 -0.8623095598
O -2.1969778102 0.8545491690 0.1679139593
H 1.6017888992 1.7113410826 -0.9895573915
H 1.0831386883 0.1744340549 -1.6919432671
H 2.7649107167 0.4034120746 -1.2159236630
H 2.1115081080 0.5493421487 1.1536915120
H 0.8970736969 -1.9041133709 -0.1858097008
H 2.6044024290 -1.6896267409 0.2049736338
H 1.4109804061 -1.7924592953 1.5005066407
H -0.0575196170 1.5962362649 0.9959289510
H -0.2242127283 0.0688135128 1.8514195812
H -2.9495647503 0.5944433703 -0.3974491540
17
CONF7
C 1.7089611958 0.6368148787 -0.9678162286
C 1.4149360151 0.1000232436 0.4314124635
C 1.6105005963 -1.4132844922 0.4869028447
C 0.0057473139 0.5034589026 0.8882464845
C -1.1190941131 0.0998431233 -0.0271985446
O -1.1338714893 -0.8321779833 -0.8015711587
O -2.1675752114 0.9015765876 0.1221035951
H 2.7362025460 0.4180471487 -1.2472852765
H 1.5627185973 1.7138864155 -1.0059013737
H 1.0501687220 0.1695042164 -1.6962703386
H 2.1180212847 0.5635645272 1.1325616568
H 2.6187218221 -1.6733321900 0.1748562122
H 1.4564228323 -1.7841366365 1.4975810480
H 0.9051562616 -1.9074738053 -0.1757536494
H -0.0608360378 1.5845546356 1.0193518543
H -0.2083876622 0.0426417335 1.8564000470
H -2.9225849463 0.6427615019 -0.4407648204
17
CONF8
C 1.6977001022 1.2750255708 -0.1235331288
C 1.4434144679 -0.2106327681 0.1236315154
C 1.4510306081 -0.9975302153 -1.1854180877
C 0.1619587014 -0.4500233280 0.9323882673
C -1.1620707804 -0.0381475748 0.3432052841
O -2.2107073261 -0.2134897558 0.9358771680
O -1.1288905157 0.5248396037 -0.8492030462
H 2.6676883773 1.4118026450 -0.5944636924
H 1.6914579589 1.8252213777 0.8145330825
H 0.9378712700 1.6922312607 -0.7770614660
H 2.2615464511 -0.5905605963 0.7469477611
H 1.2690241393 -2.0533660000 -0.9979007966
H 0.6868693162 -0.6271110226 -1.8620267935
H 2.4176911132 -0.8977621174 -1.6723246994
H 0.2309908179 0.0659289266 1.8941058645
H 0.0646168578 -1.5142712972 1.1639818342
H -2.0207395795 0.7661916334 -1.1674362573
