14
 xtb: 6.7.1 (edcfbbe)
C           -1.17470969511403        0.20555181485371       -0.50674984162141
C           -0.05747419594610        0.49609345674977        0.49327178225716
C            0.94521584108583       -0.63428080947463        0.63263693801339
O            1.57299453183449       -0.98479568360487       -0.60913958013508
O            0.67835718458987        1.65746732849030        0.06628076479385
O           -1.98137104426791       -0.90838883159486       -0.10208343473565
H           -0.74833293337842       -0.05274873211585       -1.48033753638720
H           -1.79004087016759        1.10880316957105       -0.62789110904874
H           -0.50251291857226        0.66798487512181        1.48726736316580
H            0.43082503975175       -1.53084821445738        0.98871389782938
H            1.70106182292191       -0.35163583757878        1.37852471348517
H            2.05044093000383       -0.20340500642987       -0.91740577772510
H            0.05198415206737        2.38727781735607       -0.02719368146942
H           -2.43978351468116       -0.65551177873137        0.71011139061558
