14
 xtb: 6.7.1 (edcfbbe)
C            2.25347560470146       -0.26549725548102        0.15083774145973
O            0.92630105400000       -0.30932007565235       -0.36913347989037
C            0.08574569042865        0.65727580070753        0.27029737667970
C           -1.32428254706644        0.54551617024912       -0.26125306730414
N           -1.96194049491634       -0.72378716840819        0.13512113120102
H            2.84429084275669       -1.00381919595025       -0.39683134145439
H            2.26796822775359       -0.51443833863564        1.22197199431653
H            2.70168374454187        0.72938093319919        0.01260883826657
H            0.09792176130242        0.49542083907643        1.36154023836596
H            0.47312700750680        1.67004429215967        0.07643442818976
H           -1.87133510113338        1.43465573316439        0.09064825332949
H           -1.29754104864832        0.60071810803836       -1.35549663941647
H           -2.89671600267488       -0.74538295505676       -0.26075946913437
H           -2.10032725512658       -0.70146551477519        1.14216991381221
