  25
 
 C          4.4495612886        0.2656056102        0.0016095551
 C          3.1630438449       -0.5510855273       -0.0014792884
 C          1.9259887715        0.3436212929       -0.0014443863
 C          0.6277200268       -0.4595669582       -0.0030618121
 C         -0.6006997924        0.4475237436       -0.0026069025
 C         -1.9061922961       -0.3420350047       -0.0027106613
 C         -3.1322041208        0.5817289057       -0.0004895494
 N         -4.4135118114       -0.1008779809        0.0003709798
 H          5.3195390503       -0.3870179008        0.0015240034
 H          4.4982731616        0.9030246749       -0.8787569402
 H          4.4959669624        0.8996693856        0.8845164875
 H          3.1434701489       -1.1945551498       -0.8841784692
 H          3.1412399093       -1.1976165694        0.8789478969
 H          1.9500915789        0.9900803689       -0.8821012989
 H          1.9490271134        0.9882115646        0.8806160874
 H          0.6020664894       -1.1038691838       -0.8854105654
 H          0.6012821092       -1.1060798088        0.8776475153
 H         -0.5722454547        1.0926983997        0.8787543733
 H         -0.5723720032        1.0931175581       -0.8836474744
 H         -1.9427336830       -0.9858555315       -0.8866343509
 H         -1.9415346230       -0.9880228823        0.8796650281
 H         -3.1022979175        1.2240841335        0.8843192113
 H         -3.1043227286        1.2259297585       -0.8839946750
 H         -4.4904106468       -0.6978673567        0.8177501101
 H         -4.4931041372       -0.6950815347       -0.8189385956
          25
        -26.57669227
 C          4.4675863563        0.2790326908       -0.0039876229
 C          3.1804335247       -0.5363965405       -0.0022316331
 C          1.9415877032        0.3560255461        0.0027418047
 C          0.6483279656       -0.4551823043        0.0039795597
 C         -0.5900894096        0.4381896074        0.0044326365
 C         -1.8825414319       -0.3727377300        0.0019466577
 C         -3.1272423047        0.5254408570       -0.0026686445
 N         -4.3928494710       -0.1861221812       -0.0035021851
 H          4.5137639913        0.9166236666       -0.8842897572
 H          4.5189840716        0.9123867327        0.8790715630
 H          5.3363464432       -0.3752612186       -0.0081307320
 H          3.1574330900       -1.1796040951       -0.8850670048
 H          3.1620684141       -1.1833940664        0.8779143329
 H          1.9605473103        1.0032409664       -0.8774363792
 H          1.9647460018        0.9996828933        0.8854081807
 H          0.6273712624       -1.1010838697       -0.8773537386
 H          0.6284727165       -1.1007566469        0.8855523324
 H         -0.5715893332        1.0824755286        0.8866150131
 H         -0.5699607563        1.0848632890       -0.8759723613
 H         -1.9040103666       -1.0193349319       -0.8804743537
 H         -1.9088882212       -1.0173511738        0.8856972865
 H         -3.1144205383        1.1711385953        0.8800276779
 H         -3.1109249823        1.1668778402       -0.8884227963
 H         -4.4584739516       -0.7817312050        0.8159272654
 H         -4.4555378219       -0.7852273660       -0.8205997985
