  25
 
 C          0.6870000000       -0.7200000000        0.0950000000
 C          0.1580000000       -2.1000000000       -0.2610000000
 C         -0.2980000000       -2.1670000000       -1.7190000000
 C         -0.8290000000       -3.5590000000       -2.0700000000
 C         -1.3010000000       -3.6830000000       -3.5210000000
 C         -1.8320000000       -5.0750000000       -3.8720000000
 C         -2.2870000000       -5.1380000000       -5.3300000000
 N         -2.7890000000       -6.4700000000       -5.6470000000
 H          1.0110000000       -0.6810000000        1.1390000000
 H          1.5380000000       -0.4500000000       -0.5400000000
 H         -0.0950000000        0.0340000000       -0.0470000000
 H          0.9440000000       -2.8430000000       -0.0820000000
 H         -0.6790000000       -2.3470000000        0.4030000000
 H          0.5420000000       -1.9170000000       -2.3780000000
 H         -1.0770000000       -1.4150000000       -1.8840000000
 H         -0.0340000000       -4.2970000000       -1.9050000000
 H         -1.6500000000       -3.8240000000       -1.3920000000
 H         -2.0730000000       -2.9300000000       -3.7230000000
 H         -0.4530000000       -3.4480000000       -4.1760000000
 H         -1.0470000000       -5.8210000000       -3.6950000000
 H         -2.6750000000       -5.3290000000       -3.2200000000
 H         -3.0810000000       -4.4050000000       -5.5090000000
 H         -1.4530000000       -4.8970000000       -5.9990000000
 H         -3.7360000000       -6.6850000000       -5.4130000000
 H         -2.1290000000       -7.1760000000       -5.8930000000
