  31
 
 C         -3.7867728175       -0.5785073113       -1.7981274325
 C         -3.3015129303       -0.7762211991       -0.3625941131
 H         -3.5893951268       -1.7804250600       -0.0250431598
 C         -1.8045809915       -0.6273455769       -0.2454795526
 C         -0.9978133621       -1.6942430744        0.1322636176
 C          0.3721212805       -1.5430102293        0.2371309086
 C          0.9907336114       -0.3214177457       -0.0161587882
 C          0.1611754191        0.7356564266       -0.3891364004
 C         -1.2073964337        0.6005560328       -0.5063122507
 F          0.6983357280        1.9399978925       -0.6715908488
 C          2.4492621018       -0.1736166705        0.1077080760
 C          3.0064119084        0.9222282298        0.7611656912
 C          4.3787328156        1.0365248280        0.8850006047
 C          5.2110389563        0.0648027091        0.3557442081
 C          4.6645648987       -1.0263935277       -0.2991182437
 C          3.2932097957       -1.1480448200       -0.4200761165
 C         -3.9857711014        0.2195433631        0.5776500914
 O         -4.8329654484        0.9918561959        0.2456533988
 O         -3.5611766828        0.1559196625        1.8523202831
 H         -3.5405878372        0.4192680022       -2.1488193652
 H         -3.3216221762       -1.3089130849       -2.4551504855
 H         -4.8662993019       -0.6937859278       -1.8409071236
 H         -1.4431583936       -2.6571019866        0.3396637934
 H          0.9812105039       -2.3813160557        0.5398646942
 H         -1.7973079748        1.4559336164       -0.7971313699
 H          2.3643728347        1.6797892961        1.1844727023
 H          4.7998463476        1.8886925902        1.3975325809
 H          6.2826164220        0.1577980289        0.4513363678
 H          5.3095244818       -1.7846823390       -0.7185689355
 H          2.8696719764       -1.9916444968       -0.9457933015
 H         -2.8457279751       -0.4835526419        1.9724744031
          31
        -51.61069465
 C         -3.7848702729       -0.8415912599       -1.6660520074
 C         -3.2961091402       -0.6178333030       -0.2348875714
 H         -3.5591429542       -1.4937985762        0.3720309829
 C         -1.8026248835       -0.4091228227       -0.1879508602
 C         -1.2390720658        0.7472721542       -0.7189754393
 C          0.1270471887        0.9424412548       -0.6899080651
 C          0.9884538796       -0.0049330909       -0.1377244201
 C          0.4015251788       -1.1514366624        0.3910811370
 C         -0.9649063078       -1.3593355202        0.3794868128
 F          1.1700643044       -2.0970834062        0.9732571204
 C          2.4428528573        0.2150530770       -0.1148130068
 C          2.9518789909        1.4573364521        0.2566903974
 C          4.3162828443        1.6765169902        0.2776114621
 C          5.1895189420        0.6620285853       -0.0783900283
 C          4.6911876347       -0.5741701942       -0.4530824919
 C          3.3271785141       -0.7998287627       -0.4697647945
 C         -4.0047358715        0.5844494165        0.3923217320
 O         -4.8772910663        1.2075150187       -0.1335448765
 O         -3.5726365180        0.8983219366        1.6274927525
 H         -3.5431501170        0.0167119087       -2.2863877890
 H         -3.3147130339       -1.7258630917       -2.0888845071
 H         -4.8636542907       -0.9708370988       -1.6718512704
 H         -1.8799346606        1.4994362928       -1.1539977804
 H          0.5483422204        1.8394107233       -1.1175067545
 H         -1.3569426128       -2.2692196253        0.8094857807
 H          2.2733852304        2.2452888112        0.5503200540
 H          4.6999052483        2.6415907790        0.5745477468
 H          6.2553596675        0.8347146113       -0.0624132096
 H          5.3678393524       -1.3676826359       -0.7337946968
 H          2.9462764710       -1.7636475478       -0.7720925065
 H         -2.8410056178        0.3364478105        1.9185595544
          31
        -51.61999556
 C         -3.7752221717       -0.5813765014        1.7912835756
 C         -3.2981752334        0.2598459429        0.6063475568
 H         -3.5595123769        1.3106923880        0.7526382102
 C         -1.8020567731        0.1431196215        0.4184183978
 C         -1.2196059837       -1.0737547962        0.0824164279
 C          0.1485635243       -1.1803291526       -0.0698484488
 C          0.9899030069       -0.0817992593        0.0996342211
 C          0.3814821864        1.1257999719        0.4309674781
 C         -0.9853126516        1.2505660892        0.5905869339
 F          1.1376562489        2.2274687404        0.6356714561
 C          2.4466357276       -0.2104114679       -0.0628876738
 C          3.1741903304        0.7296460182       -0.7874235032
 C          4.5413264397        0.5890210595       -0.9390447953
 C          5.2000536794       -0.4863578379       -0.3676048084
 C          4.4838218640       -1.4255446749        0.3557846380
 C          3.1163413185       -1.2917118733        0.5050651604
 C         -3.9487804860       -0.2096726584       -0.6803317527
 O         -4.1926106659       -1.3491538497       -0.9688692370
 O         -4.1990376201        0.8147279729       -1.5033104391
 H         -4.8330324195       -0.4085517790        1.9743967471
 H         -3.6305352704       -1.6374072346        1.5818427729
 H         -3.2145998276       -0.3166377046        2.6840857303
 H         -1.8456844011       -1.9385310839       -0.0745054374
 H          0.5839635439       -2.1291141561       -0.3451659316
 H         -1.3947618563        2.2137724741        0.8538238266
 H          2.6666414288        1.5661780246       -1.2435233509
 H          5.0949574785        1.3230927037       -1.5058373770
 H          6.2685971975       -0.5919052336       -0.4837638338
 H          4.9934125216       -2.2644066390        0.8071446777
 H          2.5618628254       -2.0169928029        1.0829276540
 H         -4.5785724985        0.4990362014       -2.3390661403
