  31
 
 C          1.9230000000        0.4070000000       -2.1730000000
 C          1.9320000000       -1.0140000000       -1.6030000000
 H          2.8740000000       -1.4890000000       -1.9070000000
 C          1.8850000000       -1.0360000000       -0.1120000000
 C          2.9210000000       -1.6310000000        0.6080000000
 C          2.8780000000       -1.6520000000        2.0020000000
 C          1.8000000000       -1.0790000000        2.6760000000
 C          0.7640000000       -0.4840000000        1.9550000000
 C          0.8070000000       -0.4630000000        0.5610000000
 F         -0.2800000000        0.0720000000        2.5880000000
 C          1.7600000000       -1.1030000000        4.1220000000
 C          0.7070000000       -1.7380000000        4.7800000000
 C          0.6690000000       -1.7610000000        6.1740000000
 C          1.6830000000       -1.1490000000        6.9100000000
 C          2.7360000000       -0.5130000000        6.2520000000
 C          2.7750000000       -0.4900000000        4.8580000000
 C          0.8020000000       -1.8310000000       -2.2110000000
 O         -0.2700000000       -1.3800000000       -2.5960000000
 O          1.1070000000       -3.1530000000       -2.2850000000
 H          1.0080000000        0.9490000000       -1.9090000000
 H          2.7800000000        0.9850000000       -1.8090000000
 H          1.9740000000        0.3880000000       -3.2670000000
 H          3.7650000000       -2.0800000000        0.0920000000
 H          3.6930000000       -2.1200000000        2.5500000000
 H         -0.0050000000        0.0020000000        0.0080000000
 H         -0.0900000000       -2.2210000000        4.2210000000
 H         -0.1510000000       -2.2570000000        6.6870000000
 H          1.6530000000       -1.1670000000        7.9960000000
 H          3.5250000000       -0.0360000000        6.8250000000
 H          3.6010000000        0.0100000000        4.3590000000
 H          1.9950000000       -3.3990000000       -1.9470000000
