 xtb: 6.7.1 (edcfbbe)
          04082510423D

 16 15  0     0  0            999 V2000
   -2.0437   -0.0203    0.7547 C   0  0  0  0  0  0  0  0  0  0  0  0
   -1.4251   -0.6811   -0.4716 C   0  0  0  0  0  0  0  0  0  0  0  0
   -0.2564    0.1409   -1.0263 C   0  0  0  0  0  0  0  0  0  0  0  0
    0.9006    0.2572   -0.0649 C   0  0  0  0  0  0  0  0  0  0  0  0
    1.3365    1.3383    0.2843 O   0  0  0  0  0  0  0  0  0  0  0  0
    1.4877   -1.0340    0.4253 C   0  0  0  0  0  0  0  0  0  0  0  0
   -2.8611   -0.6235    1.1415 H   0  0  0  0  0  0  0  0  0  0  0  0
   -2.4321    0.9636    0.5014 H   0  0  0  0  0  0  0  0  0  0  0  0
   -1.3036    0.1065    1.5425 H   0  0  0  0  0  0  0  0  0  0  0  0
   -2.1831   -0.7698   -1.2514 H   0  0  0  0  0  0  0  0  0  0  0  0
   -1.0863   -1.6858   -0.2200 H   0  0  0  0  0  0  0  0  0  0  0  0
    0.1195   -0.3346   -1.9345 H   0  0  0  0  0  0  0  0  0  0  0  0
   -0.5964    1.1476   -1.2778 H   0  0  0  0  0  0  0  0  0  0  0  0
    0.8557   -1.4228    1.2216 H   0  0  0  0  0  0  0  0  0  0  0  0
    2.4799   -0.8583    0.8323 H   0  0  0  0  0  0  0  0  0  0  0  0
    1.5264   -1.7698   -0.3713 H   0  0  0  0  0  0  0  0  0  0  0  0
  1  2  1  0  0  0  0
  2  3  1  0  0  0  0
  3  4  1  0  0  0  0
  4  5  2  0  0  0  0
  4  6  1  0  0  0  0
  1  7  1  0  0  0  0
  1  8  1  0  0  0  0
  1  9  1  0  0  0  0
  2 10  1  0  0  0  0
  2 11  1  0  0  0  0
  3 12  1  0  0  0  0
  3 13  1  0  0  0  0
  6 14  1  0  0  0  0
  6 15  1  0  0  0  0
  6 16  1  0  0  0  0
M  END
