  29
 
 C         -6.0152344168        0.2595322206       -0.0061767913
 C         -4.7128505809       -0.5317289772       -0.0108137090
 C         -3.4911168971        0.3838341353        0.0021513371
 C         -2.1821784592       -0.4024041889       -0.0018956084
 C         -0.9632462192        0.5167164955        0.0082490061
 C          0.3452543134       -0.2684003923       -0.0013559323
 C          1.5574629622        0.6573437827        0.0053213790
 C          2.8583809472       -0.1090169764       -0.0047096297
 O          2.9744993527       -1.3049112661       -0.0014843140
 O          3.9032873302        0.7337676802       -0.0152716483
 C          5.1921101889        0.1363611490       -0.0252470954
 H         -6.8713575340       -0.4110863730       -0.0174678722
 H         -6.0728513653        0.9045260978       -0.8804678628
 H         -6.0795574420        0.8833273031        0.8828829017
 H         -4.6822765285       -1.1853995021        0.8638259718
 H         -4.6773938168       -1.1667014476       -0.8989590098
 H         -3.5223571434        1.0375381904       -0.8729468276
 H         -3.5276505692        1.0200154999        0.8898508123
 H         -2.1460976520       -1.0397173575       -0.8883117147
 H         -2.1494606796       -1.0547842229        0.8735966799
 H         -0.9993324080        1.1715600358       -0.8658635053
 H         -0.9984967117        1.1512500935        0.8971992834
 H          0.3914846092       -0.9224930078        0.8709552626
 H          0.3881094660       -0.9057465246       -0.8861984943
 H          1.5488687530        1.3151480931       -0.8665827587
 H          1.5519452512        1.2961796412        0.8916305472
 H          5.9066408573        0.9549834609       -0.0392442503
 H          5.3113007243       -0.4932215941       -0.9094258461
 H          5.3317131318       -0.4803604269        0.8648820938
          29
        -36.60633676
 C         -3.5618839576        1.2335584675        0.6080520956
 C         -2.6803594977        0.6116863145       -0.4676461421
 C         -1.8231620327       -0.5218445955        0.0910253473
 C         -0.9002920249       -1.1089984752       -0.9741707929
 C         -0.1152350110       -2.3311906102       -0.4982510220
 C          0.8930984072       -2.0561173836        0.6179053397
 C          1.9963554313       -1.0770205443        0.2054779213
 C          1.5653960903        0.3612386767        0.3649344700
 O          0.9588949941        0.8057339912        1.3034306973
 O          1.9720223779        1.1115531907       -0.6699705089
 C          1.6376429526        2.4910852762       -0.6106824349
 H         -4.1606264245        2.0427817196        0.1956780625
 H         -2.9493164839        1.6327323458        1.4133188524
 H         -4.2341400604        0.4880250286        1.0273556961
 H         -3.3063173108        0.2315259127       -1.2792055333
 H         -2.0278578642        1.3808620117       -0.8887567579
 H         -1.2312686959       -0.1344167982        0.9209978566
 H         -2.4743353341       -1.3085464480        0.4799143417
 H         -0.2067801932       -0.3390181293       -1.3181807546
 H         -1.5038481057       -1.4064508695       -1.8365457346
 H         -0.8213222894       -3.0862799906       -0.1441049138
 H          0.4187377350       -2.7566064989       -1.3525331505
 H          0.3851317827       -1.6554544679        1.4957129190
 H          1.3522776643       -3.0051158375        0.9021437381
 H          2.8600770048       -1.2110850405        0.8619294140
 H          2.3169424525       -1.2439438020       -0.8227523207
 H          2.0993164449        2.9562121769        0.2626997330
 H          0.5545618608        2.6144820610       -0.5413094243
 H          2.0162061999        2.9371788362       -1.5267970011
