 29

C      0.744000     0.162000    -0.780000
C      1.005000    -1.113000    -1.565000
C      1.522000    -2.232000    -0.661000
C      1.783000    -3.513000    -1.454000
C      2.301000    -4.632000    -0.549000
C      2.562000    -5.915000    -1.345000
C      3.081000    -7.053000    -0.467000
C      3.344000    -8.328000    -1.237000
O      3.172000    -8.473000    -2.439000
O      3.832000    -9.271000    -0.378000
C      4.160000   -10.533000    -0.970000
H      0.374000     0.958000    -1.435000
H      1.658000     0.516000    -0.291000
H     -0.008000    -0.017000    -0.005000
H      0.077000    -1.430000    -2.055000
H      1.735000    -0.906000    -2.356000
H      2.448000    -1.908000    -0.170000
H      0.790000    -2.432000     0.131000
H      2.515000    -3.312000    -2.246000
H      0.857000    -3.836000    -1.944000
H      3.229000    -4.309000    -0.062000
H      1.571000    -4.824000     0.246000
H      1.646000    -6.223000    -1.864000
H      3.311000    -5.705000    -2.119000
H      4.030000    -6.749000    -0.010000
H      2.361000    -7.258000     0.333000
H      4.535000   -11.196000    -0.194000
H      4.913000   -10.372000    -1.739000
H      3.257000   -10.947000    -1.412000
