  22
 
 C         -4.0814939504       -0.0000268236        0.0017858203
 C         -3.3964639406       -0.7007063140        0.9793046857
 C         -2.0111777318       -0.6960131920        0.9721148902
 C         -1.2979428600        0.0001205283        0.0003186245
 C         -2.0122815328        0.6961807662       -0.9707230666
 C         -3.3975795428        0.7007380507       -0.9764472457
 Cl        -1.1382117799        1.5624193046       -2.1800171759
 C          0.1819569023        0.0001735127       -0.0003512112
 C          0.8981873812        0.9710528773        0.6950166079
 C          2.2834139023        0.9826205293        0.7029632653
 C          2.9628283229        0.0000475584       -0.0011305067
 C          2.2829357702       -0.9824281698       -0.7049156857
 C          0.8977034240       -0.9707271929       -0.6961895290
 Cl         0.0318749288       -2.1799141950       -1.5624062507
 Cl         4.6823014232       -0.0000625308       -0.0014159667
 Cl         0.0329602618        2.1804055866        1.5616115122
 Cl        -1.1357655557       -1.5622326114        2.1804735361
 H         -5.1604957405       -0.0000067698        0.0023913072
 H         -3.9250048783       -1.2478662309        1.7431591980
 H         -3.9269918638        1.2478935335       -1.7397088704
 H          2.8194742473        1.7426478630        1.2473611881
 H          2.8186294187       -1.7425168925       -1.2496345579
          22
        -51.02047442
 C         -4.0821787963        0.0044268413        0.0005852134
 C         -3.3961004172        0.9363876885       -0.7582841890
 C         -2.0109351999        0.9278391210       -0.7545046870
 C         -1.2974115788       -0.0006668948       -0.0011127366
 C         -2.0133299536       -0.9270089511        0.7525690186
 C         -3.3985480710       -0.9304272978        0.7580655404
 Cl        -1.1449830813       -2.0766069022        1.7013748804
 C          0.1819742249       -0.0011775345       -0.0002273357
 C          0.8998826661       -0.9280413301       -0.7523128020
 C          2.2851313925       -0.9379414117       -0.7600217251
 C          2.9640172549        0.0006568890        0.0015816598
 C          2.2829440833        0.9382328292        0.7625081497
 C          0.8978186550        0.9265010951        0.7529901527
 Cl         0.0355953935        2.0747679983        1.7012410531
 Cl         4.6835594693        0.0021801050        0.0024576916
 Cl         0.0403781294       -2.0777701803       -1.7012570240
 Cl        -1.1395112015        2.0740103894       -1.7045810251
 H         -5.1609432779        0.0066871700        0.0015516266
 H         -3.9245243606        1.6655567690       -1.3509292353
 H         -3.9288915627       -1.6576307772        1.3513366298
 H          2.8216228219       -1.6628825824       -1.3498862454
 H          2.8178337211        1.6638762718        1.3529334887
