  20
 
 C         -3.0389829105        1.1555135859        0.0000399448
 C         -1.7769479869        0.3451826981        0.0150774095
 C         -1.8193421262       -1.0389266430        0.0115477679
 C         -0.6526907458       -1.7851242151        0.0028242293
 C          0.5777413756       -1.1536299817       -0.0027064742
 C          0.6322788911        0.2497401468        0.0003428803
 C         -0.5392294493        0.9833220106        0.0085749897
 O          1.9087499684        0.7736584057       -0.0033599936
 C          2.0513961383        2.1703720908       -0.0020664474
 O          1.7244684205       -1.8861447794       -0.0091001073
 H         -3.3397485844        1.3620462420       -1.0278015796
 H         -3.8490567227        0.6158856190        0.4847148006
 H         -2.8979195366        2.1075440897        0.5068307885
 H         -2.7725675036       -1.5457301050        0.0164792182
 H         -0.6777713264       -2.8628271906        0.0017144432
 H         -0.5095375872        2.0620800691        0.0109197209
 H          3.1242398812        2.3581022735       -0.0042818210
 H          1.6077919861        2.6175562049        0.8931894166
 H          1.6033771480        2.6193359913       -0.8942319996
 H          2.4673334557       -1.2676485228       -0.0106760966
          20
        -30.35725684
 C         -2.9872980320        1.2318201424        0.0004257515
 C         -1.7550577729        0.3766681927       -0.0000988187
 C         -1.8324832356       -1.0047233047       -0.0005826431
 C         -0.6839184121       -1.7801250641       -0.0003570146
 C          0.5616498495       -1.1805442811        0.0001106165
 C          0.6518849989        0.2217029707        0.0001165808
 C         -0.5002950958        0.9834327299        0.0002214352
 O          1.9412614893        0.7131993392       -0.0001530837
 C          2.1177962384        2.1061200707       -0.0003161462
 O          1.6894516966       -1.9420757831        0.0005121482
 H         -3.8835215954        0.6175077491       -0.0039725149
 H         -3.0087619046        1.8699177117        0.8832677925
 H         -3.0048323276        1.8770731965       -0.8772495317
 H         -2.7972836737       -1.4891399350       -0.0011863682
 H         -0.7369679999       -2.8568272823       -0.0005804630
 H         -0.4461447680        2.0613362951        0.0004558652
 H          3.1948352911        2.2678874439       -0.0017199684
 H          1.6838349753        2.5646418571        0.8938895621
 H          1.6814159966        2.5648901923       -0.8932900910
 H          2.4480242086       -1.3429778397        0.0004088646
