 20

C      1.931000    -1.016000    -1.603000
C      1.885000    -1.036000    -0.112000
C      2.921000    -1.631000     0.608000
C      2.878000    -1.652000     2.002000
C      1.800000    -1.079000     2.676000
C      0.764000    -0.484000     1.955000
C      0.807000    -0.463000     0.561000
O     -0.294000     0.080000     2.601000
C     -1.311000     0.666000     1.791000
O      1.769000    -1.106000     4.037000
H      2.439000    -0.110000    -1.949000
H      2.465000    -1.890000    -1.990000
H      0.921000    -1.039000    -2.026000
H      3.765000    -2.081000     0.092000
H      3.689000    -2.116000     2.558000
H     -0.002000     0.000000     0.002000
H     -2.087000     1.075000     2.437000
H     -1.723000    -0.096000     1.131000
H     -0.864000     1.464000     1.200000
H      0.965000    -0.673000     4.363000
