 xtb: 6.7.1 (edcfbbe)
          04112512133D

 24 24  0     0  0            999 V2000
   -3.0785    0.0185   -0.7153 C   0  0  0  0  0  0  0  0  0  0  0  0
   -1.5646    0.1305   -0.5686 C   0  0  0  0  0  0  0  0  0  0  0  0
   -1.1165   -0.2868    0.8291 C   0  0  0  0  0  0  0  0  0  0  0  0
    0.3963   -0.2984    1.0847 C   0  0  0  0  0  0  0  0  0  0  0  0
    1.1755   -1.2585    0.1739 C   0  0  0  0  0  0  0  0  0  0  0  0
    1.7510   -0.4215   -0.9789 C   0  0  0  0  0  0  0  0  0  0  0  0
    1.6000    1.0544   -0.5750 C   0  0  0  0  0  0  0  0  0  0  0  0
    1.0852    1.0547    0.8679 C   0  0  0  0  0  0  0  0  0  0  0  0
   -3.4039   -1.0072   -0.5547 H   0  0  0  0  0  0  0  0  0  0  0  0
   -3.5806    0.6528    0.0123 H   0  0  0  0  0  0  0  0  0  0  0  0
   -3.3900    0.3253   -1.7110 H   0  0  0  0  0  0  0  0  0  0  0  0
   -1.0865   -0.5040   -1.3152 H   0  0  0  0  0  0  0  0  0  0  0  0
   -1.2675    1.1621   -0.7588 H   0  0  0  0  0  0  0  0  0  0  0  0
   -1.5794    0.3844    1.5581 H   0  0  0  0  0  0  0  0  0  0  0  0
   -1.4973   -1.2924    1.0299 H   0  0  0  0  0  0  0  0  0  0  0  0
    0.5188   -0.6061    2.1286 H   0  0  0  0  0  0  0  0  0  0  0  0
    1.9904   -1.7077    0.7429 H   0  0  0  0  0  0  0  0  0  0  0  0
    0.5421   -2.0672   -0.1881 H   0  0  0  0  0  0  0  0  0  0  0  0
    2.7972   -0.6755   -1.1478 H   0  0  0  0  0  0  0  0  0  0  0  0
    1.2171   -0.6178   -1.9083 H   0  0  0  0  0  0  0  0  0  0  0  0
    2.5476    1.5872   -0.6499 H   0  0  0  0  0  0  0  0  0  0  0  0
    0.8930    1.5554   -1.2347 H   0  0  0  0  0  0  0  0  0  0  0  0
    1.9279    1.1373    1.5560 H   0  0  0  0  0  0  0  0  0  0  0  0
    0.4124    1.8888    1.0624 H   0  0  0  0  0  0  0  0  0  0  0  0
  1  2  1  0  0  0  0
  2  3  1  0  0  0  0
  3  4  1  0  0  0  0
  4  5  1  0  0  0  0
  5  6  1  0  0  0  0
  6  7  1  0  0  0  0
  4  8  1  0  0  0  0
  7  8  1  0  0  0  0
  1  9  1  0  0  0  0
  1 10  1  0  0  0  0
  1 11  1  0  0  0  0
  2 12  1  0  0  0  0
  2 13  1  0  0  0  0
  3 14  1  0  0  0  0
  3 15  1  0  0  0  0
  4 16  1  0  0  0  0
  5 17  1  0  0  0  0
  5 18  1  0  0  0  0
  6 19  1  0  0  0  0
  6 20  1  0  0  0  0
  7 21  1  0  0  0  0
  7 22  1  0  0  0  0
  8 23  1  0  0  0  0
  8 24  1  0  0  0  0
M  END
