  21
 
 C          4.1549800658       -0.2202086300       -0.0011494976
 C          2.8223139890        0.5188517687       -0.0021670073
 C          1.6394333355       -0.4461336705        0.0077081828
 C          0.3015568671        0.2870221802        0.0051222547
 C         -0.8775701755       -0.6810757436        0.0167596625
 C         -2.2093762547        0.0505864575        0.0039830750
 O         -2.3311908562        1.2525160998        0.0017272091
 N         -3.2828833693       -0.7804127621       -0.0064449863
 H          4.9842998003        0.4831803592       -0.0070866361
 H          4.2391215372       -0.8567837223       -0.8796194027
 H          4.2434091157       -0.8469611463        0.8839261164
 H          2.7600298259        1.1553030401       -0.8874786357
 H          2.7651022861        1.1673525748        0.8746694101
 H          1.7035798591       -1.0827021343        0.8942020071
 H          1.6996920193       -1.0956008636       -0.8696755587
 H          0.2280401434        0.9230564176       -0.8785178241
 H          0.2328000662        0.9382532304        0.8779873109
 H         -0.8387431548       -1.3101344861        0.9100599049
 H         -0.8344808610       -1.3375213544       -0.8563991177
 H         -4.2058710922       -0.3800932868       -0.0142602443
 H         -3.1896182969       -1.7796090217       -0.0020257107
          21
        -26.47654419
 C          3.4791726791       -0.8560924108       -0.1518310399
 C          2.5283344675        0.3218700320       -0.3232661530
 C          1.1652769886        0.0431104063        0.3050605292
 C          0.2062882095        1.2193035585        0.1380163705
 C         -1.1670039063        0.9274236228        0.7521749275
 C         -1.8499051351       -0.2380360786        0.0582681388
 O         -1.9946163301       -1.3314618020        0.5539831897
 N         -2.2887629707        0.0473533007       -1.1917733892
 H          3.0666019439       -1.7482413584       -0.6175696669
 H          3.6389808164       -1.0658012358        0.9033836798
 H          4.4422417072       -0.6422989020       -0.6097681347
 H          2.4002301535        0.5319467444       -1.3881371313
 H          2.9644732132        1.2112993314        0.1382719160
 H          1.2933930428       -0.1670128143        1.3688011514
 H          0.7292817092       -0.8471003221       -0.1524813017
 H          0.0968311937        1.4476529722       -0.9254792122
 H          0.6288691233        2.1029416219        0.6226712666
 H         -1.8037475175        1.8114652636        0.6766986908
 H         -1.0490393638        0.6689050463        1.8047735616
 H         -2.7401629334       -0.6756504208       -1.7263952119
 H         -2.1819550946        0.9563603353       -1.6030762272
