  21
 
 C          1.0700000000       -0.0690000000       -0.2230000000
 C          1.4100000000        0.7800000000       -1.4370000000
 C          2.8890000000        0.6630000000       -1.8060000000
 C          3.2250000000        1.5210000000       -3.0300000000
 C          4.6980000000        1.4240000000       -3.4220000000
 C          5.0630000000        2.2640000000       -4.6330000000
 O          4.2590000000        2.9450000000       -5.2620000000
 N          6.3970000000        2.1560000000       -4.9630000000
 H          0.0100000000        0.0200000000        0.0340000000
 H          1.6580000000        0.2530000000        0.6420000000
 H          1.2900000000       -1.1250000000       -0.4100000000
 H          1.1610000000        1.8270000000       -1.2250000000
 H          0.7890000000        0.4640000000       -2.2830000000
 H          3.1320000000       -0.3860000000       -2.0170000000
 H          3.5030000000        0.9690000000       -0.9510000000
 H          2.9500000000        2.5660000000       -2.8390000000
 H          2.6170000000        1.1820000000       -3.8780000000
 H          4.9290000000        0.3820000000       -3.6760000000
 H          5.3370000000        1.7080000000       -2.5780000000
 H          6.7810000000        2.6640000000       -5.7530000000
 H          7.0410000000        1.5730000000       -4.4380000000
