 xtb: 6.7.1 (edcfbbe)
          04112512393D

 17 16  0     0  0            999 V2000
   -3.2633    0.4078    0.1380 C   0  0  0  0  0  0  0  0  0  0  0  0
   -1.9203    0.1568   -0.5355 C   0  0  0  0  0  0  0  0  0  0  0  0
   -0.7656    0.3048    0.4514 C   0  0  0  0  0  0  0  0  0  0  0  0
    0.5715    0.0515   -0.1904 C   0  0  0  0  0  0  0  0  0  0  0  0
    0.7517   -0.2907   -1.3393 O   0  0  0  0  0  0  0  0  0  0  0  0
    1.5678    0.2497    0.6710 O   0  0  0  0  0  0  0  0  0  0  0  0
    2.9008    0.0407    0.1967 C   0  0  0  0  0  0  0  0  0  0  0  0
   -3.3011    1.4134    0.5494 H   0  0  0  0  0  0  0  0  0  0  0  0
   -4.0708    0.2995   -0.5806 H   0  0  0  0  0  0  0  0  0  0  0  0
   -3.4234   -0.3019    0.9457 H   0  0  0  0  0  0  0  0  0  0  0  0
   -1.7778    0.8594   -1.3586 H   0  0  0  0  0  0  0  0  0  0  0  0
   -1.8970   -0.8476   -0.9620 H   0  0  0  0  0  0  0  0  0  0  0  0
   -0.8736   -0.3992    1.2793 H   0  0  0  0  0  0  0  0  0  0  0  0
   -0.7460    1.3079    0.8814 H   0  0  0  0  0  0  0  0  0  0  0  0
    3.5487    0.2669    1.0373 H   0  0  0  0  0  0  0  0  0  0  0  0
    3.1047    0.7023   -0.6460 H   0  0  0  0  0  0  0  0  0  0  0  0
    3.0237   -0.9935   -0.1268 H   0  0  0  0  0  0  0  0  0  0  0  0
  1  2  1  0  0  0  0
  2  3  1  0  0  0  0
  3  4  1  0  0  0  0
  4  5  2  0  0  0  0
  4  6  1  0  0  0  0
  6  7  1  0  0  0  0
  1  8  1  0  0  0  0
  1  9  1  0  0  0  0
  1 10  1  0  0  0  0
  2 11  1  0  0  0  0
  2 12  1  0  0  0  0
  3 13  1  0  0  0  0
  3 14  1  0  0  0  0
  7 15  1  0  0  0  0
  7 16  1  0  0  0  0
  7 17  1  0  0  0  0
M  END
