 xtb: 6.7.1 (edcfbbe)
          04112511133D

 21 21  0     0  0            999 V2000
   -3.1800    1.2351   -0.6741 C   0  0  0  0  0  0  0  0  0  0  0  0
   -1.9155    0.8109   -0.0015 C   0  0  0  0  0  0  0  0  0  0  0  0
   -1.8271    0.3217    1.1031 O   0  0  0  0  0  0  0  0  0  0  0  0
   -0.8541    1.0742   -0.7785 O   0  0  0  0  0  0  0  0  0  0  0  0
    0.4279    0.7535   -0.3529 C   0  0  0  0  0  0  0  0  0  0  0  0
    1.3686    1.7733   -0.3723 C   0  0  0  0  0  0  0  0  0  0  0  0
    2.6665    1.5281    0.0384 C   0  0  0  0  0  0  0  0  0  0  0  0
    3.0262    0.2696    0.4965 C   0  0  0  0  0  0  0  0  0  0  0  0
    2.0908   -0.7454    0.5185 C   0  0  0  0  0  0  0  0  0  0  0  0
    0.7855   -0.5263    0.0771 C   0  0  0  0  0  0  0  0  0  0  0  0
   -0.1385   -1.6836    0.0782 C   0  0  0  0  0  0  0  0  0  0  0  0
   -0.0267   -2.6232    0.8396 O   0  0  0  0  0  0  0  0  0  0  0  0
   -1.0683   -1.6515   -0.8694 O   0  0  0  0  0  0  0  0  0  0  0  0
   -4.0330    0.8867   -0.1019 H   0  0  0  0  0  0  0  0  0  0  0  0
   -3.1993    0.8396   -1.6855 H   0  0  0  0  0  0  0  0  0  0  0  0
   -3.1963    2.3208   -0.7358 H   0  0  0  0  0  0  0  0  0  0  0  0
    1.0624    2.7499   -0.7108 H   0  0  0  0  0  0  0  0  0  0  0  0
    3.3924    2.3247    0.0125 H   0  0  0  0  0  0  0  0  0  0  0  0
    4.0319    0.0798    0.8341 H   0  0  0  0  0  0  0  0  0  0  0  0
    2.3435   -1.7353    0.8660 H   0  0  0  0  0  0  0  0  0  0  0  0
   -1.6085   -2.4664   -0.8668 H   0  0  0  0  0  0  0  0  0  0  0  0
  1  2  1  0  0  0  0
  2  3  2  0  0  0  0
  2  4  1  0  0  0  0
  4  5  1  0  0  0  0
  5  6  4  0  0  0  0
  6  7  4  0  0  0  0
  7  8  4  0  0  0  0
  8  9  4  0  0  0  0
  5 10  4  0  0  0  0
  9 10  4  0  0  0  0
 10 11  1  0  0  0  0
 11 12  2  0  0  0  0
 11 13  1  0  0  0  0
  1 14  1  0  0  0  0
  1 15  1  0  0  0  0
  1 16  1  0  0  0  0
  6 17  1  0  0  0  0
  7 18  1  0  0  0  0
  8 19  1  0  0  0  0
  9 20  1  0  0  0  0
 13 21  1  0  0  0  0
M  END
