19
 xtb: 6.7.1 (edcfbbe)
C            2.45834619228097        0.94699220316909       -0.16403930470792
C            1.16898684382780        0.26672978173881        0.29250782814937
C            1.35683612010112       -1.24539969617878        0.39372744283309
C            0.02712577068162        0.63319337178353       -0.68863943612301
C           -1.28393284928446        0.01421916293699       -0.29004520155375
O           -1.71775253700119       -0.98611428525058       -0.85866588187510
C           -2.03936166167619        0.66511450770611        0.82818273509528
H            2.33824667161534        2.03391456137019       -0.21923863510908
H            3.27612656117176        0.72889585171704        0.53092792637698
H            2.75343509722828        0.58612527130309       -1.15638343390251
H            0.90442252598792        0.65521669344265        1.28407894248240
H            0.46583234592841       -1.74466376183587        0.78866063468444
H            2.19400146376871       -1.48215495514521        1.05877476094077
H            1.57608122489523       -1.67424876139255       -0.59158954568654
H            0.29223813936119        0.28352416248599       -1.69219841416018
H           -0.08219552984416        1.72413376346369       -0.70280812979062
H           -2.51763927106441        1.56817474821848        0.42695239314757
H           -2.80982389730354        0.00072241802533        1.22254537736583
H           -1.36712448004512        0.99588666241196        1.62533183764574
