  21
 
 C         -3.6955505244        0.2024289673       -0.1547469980
 C         -2.3784473901       -0.5602519882       -0.0795777653
 C         -1.1847155974        0.3810810764        0.0620231373
 C          0.1383145424       -0.3762480687        0.1373337134
 C          1.3332129469        0.5723235557        0.2748804017
 C          2.6214223593       -0.1832101071        0.3380761595
 C          3.6099143051       -0.0535456823       -0.5262032356
 H         -4.5319170942       -0.4852766519       -0.2567163769
 H         -3.6983334640        0.8753043626       -1.0096957326
 H         -3.8457291055        0.7943102526        0.7457452928
 H         -2.2562645419       -1.1634364285       -0.9822458149
 H         -2.4027032553       -1.2431996418        0.7728610025
 H         -1.1619318910        1.0632616100       -0.7913376750
 H         -1.3076989170        0.9856064500        0.9642299753
 H          0.1181228739       -1.0582385598        0.9908918203
 H          0.2643749249       -0.9795529364       -0.7649487315
 H          1.2146678633        1.1577688411        1.1917826792
 H          1.3503132485        1.2649044164       -0.5689785367
 H          2.7038092443       -0.8857139041        1.1579790739
 H          4.5198676701       -0.6241866443       -0.4469317428
 H          3.5523425077        0.6369529187       -1.3521702530
          21
        -22.09968206
 C         -3.1440899166        0.8924583974       -0.0752056624
 C         -2.2297492103       -0.2862904198        0.2348710208
 C         -0.7942347110       -0.0233802537       -0.2127710916
 C          0.1279146547       -1.2015737614        0.0891533630
 C          1.5708071458       -0.9237075663       -0.3446984782
 C          2.1767552011        0.1981983442        0.4357816808
 C          2.6755462545        1.2995224427       -0.0925538380
 H         -4.1607279252        0.6869817597        0.2522276116
 H         -3.1612873097        1.0904063042       -1.1448462758
 H         -2.7942068820        1.7891140464        0.4318856686
 H         -2.6070679522       -1.1804367428       -0.2673651965
 H         -2.2423319520       -0.4817334977        1.3097692376
 H         -0.7825522810        0.1764390060       -1.2870010372
 H         -0.4138106419        0.8678483515        0.2916396772
 H          0.1077178947       -1.4119998503        1.1612812443
 H         -0.2380865213       -2.0904124231       -0.4303277148
 H          1.5956099244       -0.6900020654       -1.4108715428
 H          2.1660800405       -1.8274183648       -0.1809585467
 H          2.1830426167        0.0585490033        1.5097572634
 H          3.1046149468        2.0818090491        0.5106178322
 H          2.6794526536        1.4644066717       -1.1578573121
