 21

C     -5.954000     0.447000    -2.622000
C     -5.747000    -0.465000    -1.423000
C     -4.529000    -0.042000    -0.600000
C     -4.327000    -0.964000     0.606000
C     -3.116000    -0.578000     1.461000
C     -2.918000    -1.482000     2.642000
C     -1.816000    -2.211000     2.849000
H     -6.827000     0.137000    -3.204000
H     -5.079000     0.434000    -3.279000
H     -6.115000     1.478000    -2.290000
H     -5.619000    -1.496000    -1.773000
H     -6.646000    -0.444000    -0.796000
H     -3.639000    -0.057000    -1.240000
H     -4.662000     0.991000    -0.254000
H     -5.222000    -0.927000     1.240000
H     -4.226000    -2.002000     0.264000
H     -3.265000     0.441000     1.838000
H     -2.217000    -0.549000     0.833000
H     -3.722000    -1.532000     3.372000
H     -1.716000    -2.853000     3.718000
H     -0.992000    -2.173000     2.146000
