17
 xtb: 6.7.1 (edcfbbe)
C            1.72925641684633        1.28331709532275       -0.12828872116185
C            1.42765067754912       -0.19849856528796        0.10275236979760
C            1.47764857546786       -1.00392555281488       -1.19662284977879
C            0.14435237477269       -0.43705764817734        0.91087207076341
C           -1.20158623008552       -0.04484958475703        0.36512617537827
O           -2.24149628744352       -0.23838565367734        0.97719563035047
O           -1.19405997197966        0.53629288564706       -0.84890272600382
H            2.72704209553128        1.40045433613897       -0.56382293001279
H            1.70683452212612        1.84023872379332        0.81462017572928
H            1.01195385615680        1.74432905748429       -0.81276376586910
H            2.22428874927895       -0.58814890514537        0.75049074488262
H            1.28085354031475       -2.06507467483715       -1.00929247560314
H            0.74586052355777       -0.64617236027154       -1.92607309834056
H            2.46977993132416       -0.92230824239305       -1.65261344886885
H            0.21536352855590        0.07369732073062        1.87976478616720
H            0.05154984312519       -1.50357836236228        1.15211989981515
H           -2.11585074029578        0.73802028308090       -1.08924951052227
