  20
 
 C          3.1818310026        0.2247339008        0.0023948143
 C          1.8687137990       -0.5484103788       -0.0001335709
 C          0.6595153896        0.3839777245       -0.0000937532
 C         -0.6596467937       -0.3841724298       -0.0001053496
 C         -1.8688209172        0.5482535315       -0.0003773138
 C         -3.1819777275       -0.2248132694        0.0019693732
 H          4.0287541180       -0.4574014663       -0.0001726871
 H          3.2510153248        0.8550961708        0.8862399930
 H          3.2505993969        0.8613404409       -0.8770419693
 H          1.8261036436       -1.1937576466        0.8802881373
 H          1.8282575283       -1.1910450003       -0.8826484276
 H          0.7020719671        1.0284563543       -0.8815036990
 H          0.7020001764        1.0283837987        0.8813808648
 H         -0.7022278407       -1.0284582513        0.8814453649
 H         -0.7021098178       -1.0287467240       -0.8814392007
 H         -1.8263136638        1.1936518067        0.8800553091
 H         -1.8281957228        1.1908564387       -0.8828779758
 H         -4.0288651295        0.4573973464       -0.0006653513
 H         -3.2506782850       -0.8613711847       -0.8774726068
 H         -3.2513340740       -0.8551578513        0.8858182895
          20
        -19.99383783
 C          3.1821223505        0.2223300292       -0.0001033381
 C          1.8685094492       -0.5498426408        0.0009405999
 C          0.6601045542        0.3833624662       -0.0004269405
 C         -0.6599792905       -0.3833000965       -0.0012431959
 C         -1.8685170804        0.5497618770        0.0004971467
 C         -3.1822278889       -0.2223077706        0.0002846585
 H          4.0287599847       -0.4603775298        0.0009591418
 H          3.2520119354        0.8572206519        0.8806268713
 H          3.2521075325        0.8545679190       -0.8827235160
 H          1.8262409106       -1.1925931025        0.8833652090
 H          1.8263090680       -1.1952323458       -0.8795660746
 H          0.7038243182        1.0276263038       -0.8820389678
 H          0.7024252153        1.0282092189        0.8808489162
 H         -0.7027802923       -1.0289871487        0.8793766278
 H         -0.7031657791       -1.0267618748       -0.8834911486
 H         -1.8259726430        1.1928068438        0.8827005094
 H         -1.8268376552        1.1948856413       -0.8802162344
 H         -3.2532430695       -0.8537193941       -0.8828334633
 H         -3.2508784393       -0.8580096300        0.8805159720
 H         -4.0289452090        0.4603183949        0.0030847439
