 20

C     -0.750000    -0.723000    -0.338000
C     -0.833000    -0.725000    -1.856000
C     -1.874000    -1.725000    -2.358000
C     -1.954000    -1.725000    -3.885000
C     -2.995000    -2.725000    -4.387000
C     -3.078000    -2.728000    -5.905000
H     -0.002000    -0.004000     0.013000
H     -0.466000    -1.714000     0.028000
H     -1.715000    -0.460000     0.107000
H      0.152000    -0.973000    -2.269000
H     -1.086000     0.283000    -2.204000
H     -2.856000    -1.475000    -1.938000
H     -1.618000    -2.731000    -2.004000
H     -0.972000    -1.975000    -4.305000
H     -2.210000    -0.719000    -4.240000
H     -2.742000    -3.733000    -4.040000
H     -3.980000    -2.477000    -3.974000
H     -3.826000    -3.446000    -6.256000
H     -3.349000    -1.737000    -6.285000
H     -2.112000    -3.005000    -6.337000
