  20
 
 C         -0.7500000000       -0.7230000000       -0.3380000000
 C         -0.8330000000       -0.7250000000       -1.8560000000
 C         -1.8740000000       -1.7250000000       -2.3580000000
 C         -1.9540000000       -1.7250000000       -3.8850000000
 C         -2.9950000000       -2.7250000000       -4.3870000000
 C         -3.0780000000       -2.7280000000       -5.9050000000
 H         -0.0020000000       -0.0040000000        0.0130000000
 H         -0.4660000000       -1.7140000000        0.0280000000
 H         -1.7150000000       -0.4600000000        0.1070000000
 H          0.1520000000       -0.9730000000       -2.2690000000
 H         -1.0860000000        0.2830000000       -2.2040000000
 H         -2.8560000000       -1.4750000000       -1.9380000000
 H         -1.6180000000       -2.7310000000       -2.0040000000
 H         -0.9720000000       -1.9750000000       -4.3050000000
 H         -2.2100000000       -0.7190000000       -4.2400000000
 H         -2.7420000000       -3.7330000000       -4.0400000000
 H         -3.9800000000       -2.4770000000       -3.9740000000
 H         -3.8260000000       -3.4460000000       -6.2560000000
 H         -3.3490000000       -1.7370000000       -6.2850000000
 H         -2.1120000000       -3.0050000000       -6.3370000000
