14
 xtb: 6.7.1 (edcfbbe)
C           -1.07650940993433       -0.55532374351681       -0.17235054484394
C            0.01371027892043        0.17558735679053        0.59591068441897
C            1.31776742510725       -0.61078315278268        0.65125952931219
O            1.87863042254332       -0.86046606419791       -0.64800760121711
O            0.21135072368176        1.49443183521874        0.04833381307080
O           -2.31670976808989        0.16695507613835       -0.15162082275464
H           -1.26995984977243       -1.52474582715212        0.29728034451207
H           -0.75385006694440       -0.72928325871278       -1.20915244311628
H           -0.32237620058126        0.33608937370346        1.62783191652756
H            1.12738033662246       -1.58904659666328        1.10565759833829
H            2.03779339742200       -0.07269366181330        1.28073483220817
H            2.30385841601099       -0.04591229429512       -0.94441429040161
H            0.45387005570899        1.39108136936041       -0.88346470320149
H           -2.13259387901151        1.04247707708903       -0.51889431371597
