 xtb: 6.7.1 (edcfbbe)
          04112512383D

 19 19  0     0  0            999 V2000
    1.4475   -2.4440    0.9513 C   0  0  0  0  0  0  0  0  0  0  0  0
    1.3034   -1.7218   -0.2718 O   0  0  0  0  0  0  0  0  0  0  0  0
    0.8625   -0.4319   -0.1289 C   0  0  0  0  0  0  0  0  0  0  0  0
    1.7621    0.6359   -0.1256 C   0  0  0  0  0  0  0  0  0  0  0  0
    1.3179    1.9445   -0.0205 C   0  0  0  0  0  0  0  0  0  0  0  0
   -0.0345    2.2111    0.0923 C   0  0  0  0  0  0  0  0  0  0  0  0
   -0.9364    1.1596    0.0892 C   0  0  0  0  0  0  0  0  0  0  0  0
   -0.5019   -0.1546   -0.0233 C   0  0  0  0  0  0  0  0  0  0  0  0
   -1.4858   -1.2899   -0.0371 C   0  0  0  0  0  0  0  0  0  0  0  0
   -1.9792   -1.7614    0.9617 O   0  0  0  0  0  0  0  0  0  0  0  0
   -1.7355   -1.7069   -1.2552 O   0  0  0  0  0  0  0  0  0  0  0  0
   -2.6350    1.4636    0.2153 Cl  0  0  0  0  0  0  0  0  0  0  0  0
    3.4495    0.2990   -0.2706 Cl  0  0  0  0  0  0  0  0  0  0  0  0
    2.2007   -1.9743    1.5887 H   0  0  0  0  0  0  0  0  0  0  0  0
    1.7733   -3.4389    0.6605 H   0  0  0  0  0  0  0  0  0  0  0  0
    0.4979   -2.5007    1.4895 H   0  0  0  0  0  0  0  0  0  0  0  0
    2.0334    2.7499   -0.0231 H   0  0  0  0  0  0  0  0  0  0  0  0
   -0.3895    3.2242    0.1775 H   0  0  0  0  0  0  0  0  0  0  0  0
   -2.3608   -2.4604   -1.2900 H   0  0  0  0  0  0  0  0  0  0  0  0
  1  2  1  0  0  0  0
  2  3  1  0  0  0  0
  3  4  4  0  0  0  0
  4  5  4  0  0  0  0
  5  6  4  0  0  0  0
  6  7  4  0  0  0  0
  3  8  4  0  0  0  0
  7  8  4  0  0  0  0
  8  9  1  0  0  0  0
  9 10  2  0  0  0  0
  9 11  4  0  0  0  0
  7 12  1  0  0  0  0
  4 13  1  0  0  0  0
  1 14  1  0  0  0  0
  1 15  1  0  0  0  0
  1 16  1  0  0  0  0
  5 17  1  0  0  0  0
  6 18  1  0  0  0  0
 11 19  1  0  0  0  0
M  END
