  20
 
 C         -2.1691681955        1.4799135690       -0.4100628182
 C         -2.0151363699        0.1583085770        0.3394154943
 C         -3.2764526473       -0.6872701487        0.1725231565
 C         -0.7996468165       -0.6337436977       -0.1540130180
 C          0.5258985026        0.0453082534        0.1580653572
 O          1.5856136594       -0.8448845348       -0.2214226074
 C          2.8120771436       -0.3733301183       -0.1291656768
 O          3.1336811570        0.7179280799        0.2392516857
 H         -1.3351342317        2.1463616350       -0.2102548467
 H         -3.0823576224        1.9816363288       -0.0998585416
 H         -2.2244726559        1.3032773602       -1.4816454823
 H         -1.8799306537        0.3740589249        1.4051550434
 H         -3.1943978744       -1.6178664044        0.7288696022
 H         -3.4352655421       -0.9269211660       -0.8763927382
 H         -4.1473468657       -0.1474050864        0.5362276468
 H         -0.8743876444       -0.7875073552       -1.2318596083
 H         -0.7914208666       -1.6162528393        0.3216599539
 H          0.6485550901        0.9830658722       -0.3921822574
 H          0.6166605631        0.2618062806        1.2285975855
 H          3.5191705851       -1.1563060048       -0.4543604028
          20
        -27.10715176
 C         -2.8129400526       -0.0658779556       -0.7132684158
 C         -1.3736717352        0.1769611322       -0.2619521093
 C         -1.3073429680        1.3997599965        0.6502286633
 C         -0.8424355547       -1.0842451166        0.4306968307
 C          0.6374227142       -1.0224756866        0.8008947937
 O          1.4540207847       -0.9231254007       -0.3734041160
 C          2.0615833040        0.2209966600       -0.6082137042
 O          2.0425388304        1.2084906190        0.0667882444
 H         -2.8717172128       -0.9236848217       -1.3796333734
 H         -3.1972657689        0.8034537922       -1.2410166541
 H         -3.4515776105       -0.2542978654        0.1472228246
 H         -0.7619644907        0.3698730240       -1.1507411546
 H         -0.2788936420        1.6847453821        0.8541213550
 H         -1.8124646684        1.1999605312        1.5932622907
 H         -1.7960324820        2.2458233525        0.1727623798
 H         -0.9923730419       -1.9408609495       -0.2300078268
 H         -1.4076129022       -1.2598486327        1.3482215695
 H          0.8500046927       -0.1704172704        1.4515401548
 H          0.9378533829       -1.9479918136        1.2996610734
 H          2.6238602228        0.1307619470       -1.5539976309
