 xtb: 6.7.1 (edcfbbe)
          04112510483D

 18 17  0     0  0            999 V2000
   -1.9795    0.3831   -0.7508 C   0  0  0  0  0  0  0  0  0  0  0  0
   -1.4907   -0.5549    0.3456 C   0  0  0  0  0  0  0  0  0  0  0  0
   -0.2349   -0.0185    1.0450 C   0  0  0  0  0  0  0  0  0  0  0  0
    0.9368    0.1296    0.1134 C   0  0  0  0  0  0  0  0  0  0  0  0
    1.3955    1.3173   -0.2492 C   0  0  0  0  0  0  0  0  0  0  0  0
    1.5539   -1.1452   -0.3763 C   0  0  0  0  0  0  0  0  0  0  0  0
   -1.2102    0.5176   -1.5078 H   0  0  0  0  0  0  0  0  0  0  0  0
   -2.2216    1.3589   -0.3356 H   0  0  0  0  0  0  0  0  0  0  0  0
   -2.8700   -0.0189   -1.2280 H   0  0  0  0  0  0  0  0  0  0  0  0
   -2.2777   -0.6791    1.0926 H   0  0  0  0  0  0  0  0  0  0  0  0
   -1.2829   -1.5378   -0.0804 H   0  0  0  0  0  0  0  0  0  0  0  0
   -0.4683    0.9508    1.4898 H   0  0  0  0  0  0  0  0  0  0  0  0
    0.0356   -0.7058    1.8507 H   0  0  0  0  0  0  0  0  0  0  0  0
    2.2351    1.4260   -0.9156 H   0  0  0  0  0  0  0  0  0  0  0  0
    0.9504    2.2324    0.1042 H   0  0  0  0  0  0  0  0  0  0  0  0
    0.8432   -1.7021   -0.9848 H   0  0  0  0  0  0  0  0  0  0  0  0
    2.4371   -0.9435   -0.9763 H   0  0  0  0  0  0  0  0  0  0  0  0
    1.8352   -1.7752    0.4660 H   0  0  0  0  0  0  0  0  0  0  0  0
  1  2  1  0  0  0  0
  2  3  1  0  0  0  0
  3  4  1  0  0  0  0
  4  5  2  0  0  0  0
  4  6  1  0  0  0  0
  1  7  1  0  0  0  0
  1  8  1  0  0  0  0
  1  9  1  0  0  0  0
  2 10  1  0  0  0  0
  2 11  1  0  0  0  0
  3 12  1  0  0  0  0
  3 13  1  0  0  0  0
  5 14  1  0  0  0  0
  5 15  1  0  0  0  0
  6 16  1  0  0  0  0
  6 17  1  0  0  0  0
  6 18  1  0  0  0  0
M  END
