  29
 
 C         -2.5579968556       -1.4331221934       -0.1276776774
 C         -2.1816306054       -0.0406169857        0.3736975850
 C         -3.2527727785        0.9654436795       -0.0456061946
 C         -0.8134000684        0.4076334168       -0.1551427529
 C          0.3412902568       -0.4313260974        0.3899971164
 C          1.7536245006        0.0360669345       -0.0087693338
 C          2.0543491879        1.4280073338        0.5517078421
 C          2.7593125908       -0.9579350593        0.5833526738
 C          1.9152740947        0.0518652405       -1.5303507911
 H         -1.8798101901       -2.1880553121        0.2602966996
 H         -2.5267031268       -1.4647222715       -1.2148078340
 H         -3.5653068030       -1.6899479838        0.1928890468
 H         -2.1402621095       -0.0639681040        1.4689449775
 H         -3.0215045927        1.9579053991        0.3351064115
 H         -3.3162467139        1.0206933927       -1.1304530862
 H         -4.2267418516        0.6708438528        0.3390470195
 H         -0.8286818036        0.3560619985       -1.2450819794
 H         -0.6666127543        1.4507056465        0.1300807064
 H          0.2229998010       -1.4611786276        0.0478639246
 H          0.2789216533       -0.4388658425        1.4815720193
 H          3.0911737811        1.6940436146        0.3571378532
 H          1.4231290700        2.1825905523        0.0900143297
 H          1.8915945251        1.4509946046        1.6269681155
 H          3.7771826187       -0.6689520282        0.3302271052
 H          2.6737228839       -0.9908463163        1.6674648398
 H          2.5834945566       -1.9594825733        0.1962510344
 H          2.9494023382        0.2619088641       -1.7954429991
 H          1.2905503265        0.8178455986       -1.9818439042
 H          1.6433091895       -0.9124150596       -1.9542209540
          29
        -29.49182147
 C         -3.2244202848       -1.0288859311       -0.0590154728
 C         -2.1783956170        0.0022450151        0.3631379989
 C         -2.6015660021        1.3903528089       -0.1119359114
 C         -0.8037457455       -0.3970741337       -0.1874043223
 C          0.3331134684        0.4612116172        0.3655474137
 C          1.7563590256       -0.0039666854        0.0045216001
 C          1.9369709017       -0.0843005950       -1.5128765591
 C          2.7422848669        1.0272549871        0.5658417301
 C          2.0673015433       -1.3661055694        0.6292858669
 H         -3.2987270324       -1.0695955827       -1.1440362185
 H         -4.2021926377       -0.7694853891        0.3412454626
 H         -2.9589475395       -2.0196182255        0.3037236019
 H         -2.1244882650        0.0106539806        1.4581183994
 H         -2.6118671086        1.4309217861       -1.1993597592
 H         -3.6013444053        1.6237506541        0.2482206267
 H         -1.9242426721        2.1558368523        0.2566432619
 H         -0.6267298757       -1.4416813539        0.0740386418
 H         -0.8295744378       -0.3232032416       -1.2759203771
 H          0.2493397742        0.4886249310        1.4554259322
 H          0.2138350393        1.4837828953        0.0021164916
 H          1.3292408274       -0.8793246432       -1.9367246238
 H          1.6552747556        0.8557752532       -1.9821758472
 H          2.9773387930       -0.2892718798       -1.7564763058
 H          2.6341866733        1.1130784844        1.6450409646
 H          3.7672989624        0.7351711511        0.3478510392
 H          2.5662537875        2.0065634500        0.1257417760
 H          1.8990265724       -1.3420599907        1.7039416961
 H          3.1077586739       -1.6306908534        0.4520584072
 H          1.4460541113       -2.1479456233        0.2000463708
