20
 xtb: 6.7.1 (edcfbbe)
C            2.82502462006225        0.20428895792275        0.16353783111403
C            1.48532202480765       -0.36967684620431       -0.29240750114959
C            0.30501359716509        0.48837860953568        0.16207019727271
C           -1.06727196112427        0.02442718462738       -0.34297875521833
C           -2.14504257617262        1.03219487808448        0.06053602838717
C           -1.42854266512118       -1.36914868390276        0.17455252830753
H            3.66298860063477       -0.41674640901385       -0.17006876940843
H            2.97678519559135        1.21428513670260       -0.23417895719496
H            2.87047068035410        0.26732921602747        1.25691323650821
H            1.47116149318482       -0.45074592776750       -1.38769251364014
H            1.38028322285654       -1.38913275336922        0.09719745055268
H            0.28341801962883        0.52425651663209        1.26161757861941
H            0.47183007138349        1.52002965698184       -0.17811268076017
H           -1.02654619578268       -0.01539552497729       -1.44153740439562
H           -1.92028839174912        2.03223226139553       -0.32641208774644
H           -2.21327925048299        1.10202608674100        1.15335606200589
H           -3.12939311585514        0.73552956234085       -0.31784471668650
H           -1.43477188175282       -1.37904245686013        1.27211253009846
H           -2.42548199611605       -1.66644160727404       -0.16902895603309
H           -0.72050532995372       -2.13124198042665       -0.16494857857233
