 xtb: 6.7.1 (edcfbbe)
          04112511523D

 13 12  0     0  0            999 V2000
   -1.9511   -0.2410   -0.5523 C   0  0  0  0  0  0  0  0  0  0  0  0
   -1.0695   -0.2279    0.5526 O   0  0  0  0  0  0  0  0  0  0  0  0
   -0.0536    0.7495    0.4898 C   0  0  0  0  0  0  0  0  0  0  0  0
    1.0903    0.4255   -0.4768 C   0  0  0  0  0  0  0  0  0  0  0  0
    1.8658   -0.6229    0.0639 O   0  0  0  0  0  0  0  0  0  0  0  0
   -2.3803    0.7536   -0.7162 H   0  0  0  0  0  0  0  0  0  0  0  0
   -2.7387   -0.9444   -0.2935 H   0  0  0  0  0  0  0  0  0  0  0  0
   -1.4547   -0.5752   -1.4679 H   0  0  0  0  0  0  0  0  0  0  0  0
   -0.4853    1.7226    0.2179 H   0  0  0  0  0  0  0  0  0  0  0  0
    0.3538    0.7962    1.5019 H   0  0  0  0  0  0  0  0  0  0  0  0
    1.6992    1.3313   -0.5951 H   0  0  0  0  0  0  0  0  0  0  0  0
    0.6842    0.1408   -1.4551 H   0  0  0  0  0  0  0  0  0  0  0  0
    2.5771   -0.8495   -0.5510 H   0  0  0  0  0  0  0  0  0  0  0  0
  1  2  1  0  0  0  0
  2  3  1  0  0  0  0
  3  4  1  0  0  0  0
  4  5  1  0  0  0  0
  1  6  1  0  0  0  0
  1  7  1  0  0  0  0
  1  8  1  0  0  0  0
  3  9  1  0  0  0  0
  3 10  1  0  0  0  0
  4 11  1  0  0  0  0
  4 12  1  0  0  0  0
  5 13  1  0  0  0  0
M  END
