26
 xtb: 6.7.1 (edcfbbe)
C           -2.48170753678657        0.74350029333818        0.47554735421169
C           -1.23760261994325       -0.15095242007464        0.52121251322330
C           -1.62377408836785       -1.56962510546140        0.09265760633782
C           -0.09026287025166        0.43701887375463       -0.33516193201210
C            0.29753455726394        1.83710245759326        0.15582514782976
C            1.13462684373086       -0.50561353457035       -0.44173549638704
C            2.17975595602084        0.01911799946973       -1.43111588162480
C            1.79051316373781       -0.80277119824246        0.90799586024244
H           -2.30084458933641        1.73190632144484        0.90606604031054
H           -2.82107233074398        0.88077466343818       -0.55917224843202
H           -3.30294748197056        0.28632555912324        1.03783378182377
H           -0.89390518184715       -0.18878826610594        1.56540521537674
H           -1.86932622694361       -1.59831726793410       -0.97664153621655
H           -2.50721997691051       -1.90652756162830        0.64586644344652
H           -0.82703124404658       -2.29621441563580        0.27592286985572
H           -0.48458067171167        0.53745847589317       -1.35943256436040
H            1.17543168151399        2.22069246624078       -0.37146128175747
H            0.52467358808769        1.83286562945003        1.22830330406924
H           -0.51063250722076        2.55474106348880       -0.00757501581969
H            0.76861676017900       -1.45452979606612       -0.85225889965455
H            2.92525035343626       -0.75504074886968       -1.64421866675581
H            1.71825915880994        0.31197615300939       -2.38163995967515
H            2.71742462309456        0.88733616956012       -1.03501753476942
H            1.09252692633559       -1.26292324078084        1.61492810378398
H            2.18297675148471        0.11155652029371        1.36776840859279
H            2.63285535152349       -1.49167300067736        0.77861012700338
