 xtb: 6.7.1 (edcfbbe)
          04112512223D

 23 22  0     0  0            999 V2000
   -1.5186    1.0839    0.5595 C   0  0  0  0  0  0  0  0  0  0  0  0
   -1.1514   -0.3061    0.0447 C   0  0  0  0  0  0  0  0  0  0  0  0
   -2.3280   -0.8712   -0.7551 C   0  0  0  0  0  0  0  0  0  0  0  0
    0.0966   -0.3154   -0.8495 C   0  0  0  0  0  0  0  0  0  0  0  0
    1.4763   -0.0853   -0.2052 C   0  0  0  0  0  0  0  0  0  0  0  0
    1.7787    1.3799    0.1074 C   0  0  0  0  0  0  0  0  0  0  0  0
    1.6930   -0.9502    1.0346 C   0  0  0  0  0  0  0  0  0  0  0  0
   -1.5524    1.7974   -0.2609 H   0  0  0  0  0  0  0  0  0  0  0  0
   -2.4989    1.0591    1.0314 H   0  0  0  0  0  0  0  0  0  0  0  0
   -0.8050    1.4377    1.2965 H   0  0  0  0  0  0  0  0  0  0  0  0
   -0.9822   -0.9650    0.9014 H   0  0  0  0  0  0  0  0  0  0  0  0
   -3.2272   -0.8991   -0.1439 H   0  0  0  0  0  0  0  0  0  0  0  0
   -2.5253   -0.2504   -1.6267 H   0  0  0  0  0  0  0  0  0  0  0  0
   -2.1157   -1.8824   -1.0953 H   0  0  0  0  0  0  0  0  0  0  0  0
   -0.0398    0.4238   -1.6432 H   0  0  0  0  0  0  0  0  0  0  0  0
    0.1343   -1.2973   -1.3299 H   0  0  0  0  0  0  0  0  0  0  0  0
    2.2064   -0.4027   -0.9614 H   0  0  0  0  0  0  0  0  0  0  0  0
    2.8378    1.4984    0.3281 H   0  0  0  0  0  0  0  0  0  0  0  0
    1.5346    2.0132   -0.7421 H   0  0  0  0  0  0  0  0  0  0  0  0
    1.2190    1.7277    0.9699 H   0  0  0  0  0  0  0  0  0  0  0  0
    2.7312   -0.8909    1.3539 H   0  0  0  0  0  0  0  0  0  0  0  0
    1.0681   -0.6125    1.8576 H   0  0  0  0  0  0  0  0  0  0  0  0
    1.4584   -1.9908    0.8223 H   0  0  0  0  0  0  0  0  0  0  0  0
  1  2  1  0  0  0  0
  2  3  1  0  0  0  0
  2  4  1  0  0  0  0
  4  5  1  0  0  0  0
  5  6  1  0  0  0  0
  5  7  1  0  0  0  0
  1  8  1  0  0  0  0
  1  9  1  0  0  0  0
  1 10  1  0  0  0  0
  2 11  1  0  0  0  0
  3 12  1  0  0  0  0
  3 13  1  0  0  0  0
  3 14  1  0  0  0  0
  4 15  1  0  0  0  0
  4 16  1  0  0  0  0
  5 17  1  0  0  0  0
  6 18  1  0  0  0  0
  6 19  1  0  0  0  0
  6 20  1  0  0  0  0
  7 21  1  0  0  0  0
  7 22  1  0  0  0  0
  7 23  1  0  0  0  0
M  END
