35
 xtb: 6.7.1 (edcfbbe)
C            0.17673956504714       -3.33225334025806        0.05526892315473
C            0.66802549329459       -1.91726220347583        0.09442594035866
C            2.01618236620711       -1.57899313599301       -0.08158247422378
N            2.46488515249061       -0.31445093365538       -0.05242890920395
C            1.55445592107509        0.65355402089306        0.16615521353770
N            0.22912823864679        0.44404871903296        0.31452624125216
C           -0.16568411961281       -0.81604916881691        0.27704144105201
O           -1.51323973512568       -1.05270876778831        0.40630327422244
C           -2.31291752516793        0.07910642325177        0.67445708068890
O           -2.49997685236773        0.41721655559076        1.83576612574379
N           -2.90208312764588        0.59037156278679       -0.41174445565278
C           -3.73698864993847        1.78163474368841       -0.24040148458085
C           -2.47746973776382        0.30970804768780       -1.78446233130045
N            2.00018201273344        1.94718526531921        0.27827961855048
C            3.32671307392539        2.26981951301796       -0.25119134058872
C            1.01824872372418        3.02670034347095        0.15907645860039
C            3.02730242301232       -2.65543954146612       -0.31769702230577
H            0.25407914871912       -3.75364958957571       -0.95418243539649
H            0.76976657484739       -3.97184754215467        0.71696883595189
H           -0.86636248511723       -3.40037395256903        0.36646736747175
H           -3.12520628541071        2.69184976054051       -0.24641508265700
H           -4.28521056831925        1.72378695323667        0.70004870651074
H           -4.44861565533011        1.82709172835972       -1.06750675884079
H           -1.91215971694498       -0.61878668713647       -1.83708511439290
H           -1.86227934523895        1.13266085209127       -2.16701416685636
H           -3.36505220643489        0.21613787185905       -2.41619017676669
H            4.07971624695510        1.59260573815225        0.15079726210237
H            3.57931342495226        3.28743662889223        0.05327727790336
H            3.35371255011343        2.21423265004907       -1.34914790573095
H            0.19498271520881        2.88211504399441        0.85910486833961
H            0.60597492783611        3.09569121620120       -0.85819659451074
H            1.51304413725756        3.96949911131497        0.40004637330268
H            4.01107503831114       -2.22666738207251       -0.51109549214716
H            3.09351751235460       -3.31501403460822        0.55546256854051
H            2.73429942783497       -3.28514964010416       -1.16474873629111
