 xtb: 6.7.1 (edcfbbe)
          04112512523D

 21 20  0     0  0            999 V2000
    2.1026   -0.7696   -0.7429 C   0  0  0  0  0  0  0  0  0  0  0  0
    1.4753   -0.4552    0.6123 C   0  0  0  0  0  0  0  0  0  0  0  0
    0.2019    0.4055    0.5467 C   0  0  0  0  0  0  0  0  0  0  0  0
   -0.1825    0.5176    1.5686 H   0  0  0  0  0  0  0  0  0  0  0  0
   -0.9222   -0.1807   -0.3313 C   0  0  0  0  0  0  0  0  0  0  0  0
   -1.2791   -1.6091    0.0725 C   0  0  0  0  0  0  0  0  0  0  0  0
   -2.1607    0.7107   -0.2309 C   0  0  0  0  0  0  0  0  0  0  0  0
    0.5106    1.7331    0.1526 O   0  0  0  0  0  0  0  0  0  0  0  0
    2.3631    0.1415   -1.2765 H   0  0  0  0  0  0  0  0  0  0  0  0
    1.4314   -1.3577   -1.3628 H   0  0  0  0  0  0  0  0  0  0  0  0
    3.0158   -1.3409   -0.5957 H   0  0  0  0  0  0  0  0  0  0  0  0
    1.2430   -1.3826    1.1348 H   0  0  0  0  0  0  0  0  0  0  0  0
    2.1989    0.0940    1.2197 H   0  0  0  0  0  0  0  0  0  0  0  0
   -0.5812   -0.1766   -1.3725 H   0  0  0  0  0  0  0  0  0  0  0  0
   -1.5152   -1.6524    1.1335 H   0  0  0  0  0  0  0  0  0  0  0  0
   -2.1516   -1.9397   -0.4859 H   0  0  0  0  0  0  0  0  0  0  0  0
   -0.4655   -2.2990   -0.1307 H   0  0  0  0  0  0  0  0  0  0  0  0
   -1.8970    1.7493   -0.4150 H   0  0  0  0  0  0  0  0  0  0  0  0
   -2.5919    0.6416    0.7654 H   0  0  0  0  0  0  0  0  0  0  0  0
   -2.9107    0.4049   -0.9559 H   0  0  0  0  0  0  0  0  0  0  0  0
    0.8769    1.7065   -0.7420 H   0  0  0  0  0  0  0  0  0  0  0  0
  1  2  1  0  0  0  0
  2  3  1  0  0  0  0
  3  4  1  0  0  0  0
  3  5  1  0  0  0  0
  5  6  1  0  0  0  0
  5  7  1  0  0  0  0
  3  8  1  0  0  0  0
  1  9  1  0  0  0  0
  1 10  1  0  0  0  0
  1 11  1  0  0  0  0
  2 12  1  0  0  0  0
  2 13  1  0  0  0  0
  5 14  1  0  0  0  0
  6 15  1  0  0  0  0
  6 16  1  0  0  0  0
  6 17  1  0  0  0  0
  7 18  1  0  0  0  0
  7 19  1  0  0  0  0
  7 20  1  0  0  0  0
  8 21  1  0  0  0  0
M  END
