21
CONF2
C -3.2179083908 1.3911398736 -0.0026111768
C -2.5641897108 0.0359088292 0.0000834437
O -3.2378090924 -0.9879192679 0.0026461070
C -1.0928722880 -0.0167710324 -0.0001454102
C -0.2843437553 1.1200160950 -0.0021155598
C 1.0920846063 1.0143964557 -0.0020100162
C 1.6999768830 -0.2410516864 0.0001898980
C 0.8962083469 -1.3876459999 0.0020046851
C -0.4712490906 -1.2724549579 0.0018303479
O 3.0342903733 -0.4563800770 0.0008618704
C 3.9136772029 0.6562821564 -0.0007519584
H -2.9180668426 1.9489876514 0.8805452853
H -4.2974766365 1.2655054551 -0.0027095697
H -2.9174479746 1.9458749896 -0.8874918294
H -0.7238729653 2.1037836389 -0.0037351813
H 1.6860806966 1.9135697926 -0.0035969197
H 1.3790955786 -2.3515976749 0.0035239834
H -1.0990555452 -2.1510887854 0.0031252539
H 4.9133565298 0.2285148206 0.0016343744
H 3.7733959960 1.2690160710 0.8925030463
H 3.7756614984 1.2644695835 -0.8974682436
21
CONF1
C -3.4274074549 -1.0232807113 -0.0016779911
C -2.5513841331 0.1994600137 -0.0002271882
O -3.0386846576 1.3241512506 -0.0000055253
C -1.0930642296 -0.0024504288 0.0006598229
C -0.2673084611 1.1238046188 0.0008152192
C 1.1069229578 1.0153738513 0.0007434560
C 1.6975086372 -0.2479905203 0.0004824711
C 0.8786837659 -1.3840918764 0.0008833934
C -0.4903873167 -1.2657157210 0.0009264556
O 3.0287116257 -0.4824364801 -0.0001273523
C 3.9234389205 0.6171363115 -0.0016922574
H -4.4697066700 -0.7151627856 -0.0031528250
H -3.2273107156 -1.6230814614 0.8822617095
H -3.2247752207 -1.6228121420 -0.8851780419
H -0.7367436522 2.0967442819 0.0008492587
H 1.7068900898 1.9104759598 0.0008853766
H 1.3555750758 -2.3511157246 0.0009508110
H -1.0904763118 -2.1601924432 0.0009390679
H 4.9171818646 0.1756589924 -0.0026600130
H 3.7936222060 1.2307784645 0.8926736070
H 3.7914822602 1.2299218104 -0.8963442879
21
CONF3
C -3.2704815612 1.1216248441 -0.7580511420
C -2.5632296460 0.0543449425 0.0315064101
O -3.2085290783 -0.7900984545 0.6428889692
C -1.0895665177 0.0086516596 0.0210388411
C -0.2744213229 1.1035785866 -0.2608957998
C 1.1021199225 0.9922265747 -0.2412727322
C 1.7035786993 -0.2305763438 0.0526713705
C 0.8934351954 -1.3335321568 0.3480335585
C -0.4732223205 -1.2083937702 0.3415503913
O 3.0370887391 -0.4514364306 0.0856383551
C 3.9207744366 0.6169156985 -0.2120472103
H -4.0456775018 1.5680392053 -0.1393860978
H -3.7688224882 0.6314104143 -1.5932764888
H -2.6056360153 1.8832623218 -1.1425732940
H -0.7031699534 2.0707826734 -0.4676541081
H 1.6996351824 1.8636914580 -0.4529535688
H 1.3703372986 -2.2718655375 0.5812411615
H -1.1040347136 -2.0534945754 0.5739149154
H 3.7599404427 0.9881493718 -1.2266934480
H 4.9183958004 0.1918629639 -0.1307702855
H 3.8083910912 1.4317231491 0.5067808513
