21
CONF3
C -3.2371537642 1.2331335646 -0.5894410050
C -2.5739664151 -0.0161616379 -0.0800668847
O -3.2578024503 -0.9797497580 0.2842543794
C -1.0998635024 -0.0749006664 -0.0271980241
C -0.2960387193 0.9916781589 -0.4495234075
C 1.0895717975 0.9184631739 -0.3990981184
C 1.6943655504 -0.2459833142 0.0860334369
C 0.9050911900 -1.3252086087 0.5150074189
C -0.4687538930 -1.2359195236 0.4561193758
O 3.0370199674 -0.4277430801 0.1811694366
C 3.8918513813 0.6433878623 -0.2621877027
H -4.3203324021 1.1242123903 -0.5240611456
H -2.9519963339 1.4162995505 -1.6316432937
H -2.9194811415 2.1069403434 -0.0109034481
H -0.7482536536 1.9016610995 -0.8279875697
H 1.6814811957 1.7607024574 -0.7343791751
H 1.3946802306 -2.2191219548 0.8874184396
H -1.0768521317 -2.0712983871 0.7862034316
H 3.7319626279 0.8522122065 -1.3252141084
H 4.9099887020 0.2867436043 -0.1060338612
H 3.7214919148 1.5476019150 0.3314147652
21
CONF2
C -3.2175373709 1.4043042946 -0.0027206611
C -2.5653959542 0.0498674569 0.0002879866
O -3.2578348678 -0.9743525426 0.0023222695
C -1.0918962144 -0.0365910453 -0.0001077923
C -0.2790047061 1.1039603552 -0.0021778479
C 1.1060151474 1.0065653614 -0.0020140473
C 1.7007322238 -0.2596830311 0.0002335874
C 0.9021347542 -1.4146558987 0.0021412013
C -0.4710091742 -1.2993009093 0.0019455587
O 3.0417141056 -0.4749814745 0.0007345440
C 3.9060289598 0.6769227866 -0.0007762590
H -2.9121268578 1.9806267171 0.8771521543
H -4.3015814754 1.2867141783 -0.0029356579
H -2.9113644606 1.9774816458 -0.8843697824
H -0.7239874500 2.0926306945 -0.0038518176
H 1.7041978600 1.9088808074 -0.0035915540
H 1.3843596771 -2.3866695262 0.0038207809
H -1.0860698586 -2.1926931052 0.0035629794
H 4.9208889018 0.2792817160 0.0005355200
H 3.7451014031 1.2837030834 0.8962414526
H 3.7461714723 1.2805439577 -0.9001197125
21
CONF1
C -3.4371593446 -1.0229512652 -0.0013429334
C -2.5545905185 0.1936332390 -0.0002131088
O -3.0532548527 1.3247859949 0.0002434836
C -1.0892455985 0.0123279490 0.0002762247
C -0.2524806156 1.1365887456 0.0003788316
C 1.1275602999 1.0144635951 0.0003713309
C 1.6992362341 -0.2648655949 0.0003085432
C 0.8798147948 -1.4022187045 0.0005342796
C -0.4938942167 -1.2616053975 0.0004601609
O 3.0366423849 -0.5040597638 0.0000165157
C 3.9221698244 0.6322470464 -0.0012786241
H -4.4832127829 -0.7155534676 -0.0023321438
H -3.2382385712 -1.6426881704 0.8794159322
H -3.2364507327 -1.6424658819 -0.8818410671
H -0.6959817742 2.1265326110 0.0003513153
H 1.7438649573 1.9045381311 0.0003799276
H 1.3413402858 -2.3839449496 0.0006337064
H -1.1081175962 -2.1549127897 0.0005013522
H 4.9292474665 0.2155052990 -0.0020402054
H 3.7736063918 1.2403109530 0.8968475766
H 3.7719125202 1.2395071900 -0.8996658737
