 22

C     -1.858000     0.740000     0.800000
C     -1.004000    -0.257000     0.326000
C     -1.437000    -1.582000     0.269000
C     -2.727000    -1.905000     0.689000
C     -3.580000    -0.910000     1.163000
C     -3.149000     0.415000     1.220000
O     -4.856000    -1.183000     1.585000
C     -5.239000    -2.498000     1.512000
C     -6.529000    -2.821000     1.932000
C     -6.962000    -4.146000     1.875000
C     -6.107000    -5.143000     1.401000
C     -4.817000    -4.818000     0.982000
C     -4.386000    -3.494000     1.038000
O     -3.109000    -3.220000     0.616000
H     -1.517000     1.770000     0.842000
H      0.000000    -0.000000     0.001000
H     -0.766000    -2.353000    -0.101000
H     -3.808000     1.196000     1.587000
H     -7.199000    -2.051000     2.303000
H     -7.966000    -4.403000     2.201000
H     -6.448000    -6.174000     1.358000
H     -4.157000    -5.599000     0.613000
