  22
 
 C         -1.8580000000        0.7400000000        0.8000000000
 C         -1.0040000000       -0.2570000000        0.3260000000
 C         -1.4370000000       -1.5820000000        0.2690000000
 C         -2.7270000000       -1.9050000000        0.6890000000
 C         -3.5800000000       -0.9100000000        1.1630000000
 C         -3.1490000000        0.4150000000        1.2200000000
 O         -4.8560000000       -1.1830000000        1.5850000000
 C         -5.2390000000       -2.4980000000        1.5120000000
 C         -6.5290000000       -2.8210000000        1.9320000000
 C         -6.9620000000       -4.1460000000        1.8750000000
 C         -6.1070000000       -5.1430000000        1.4010000000
 C         -4.8170000000       -4.8180000000        0.9820000000
 C         -4.3860000000       -3.4940000000        1.0380000000
 O         -3.1090000000       -3.2200000000        0.6160000000
 H         -1.5170000000        1.7700000000        0.8420000000
 H          0.0000000000        0.0000000000        0.0010000000
 H         -0.7660000000       -2.3530000000       -0.1010000000
 H         -3.8080000000        1.1960000000        1.5870000000
 H         -7.1990000000       -2.0510000000        2.3030000000
 H         -7.9660000000       -4.4030000000        2.2010000000
 H         -6.4480000000       -6.1740000000        1.3580000000
 H         -4.1570000000       -5.5990000000        0.6130000000
