  13
 
 C          2.0912171076        0.0000373081       -0.0069090372
 N          0.6572008087       -0.0000090289        0.0211474648
 C         -0.1346163666        1.1034593206        0.0089474485
 C         -1.4433289672        0.7037739998       -0.0039206919
 C         -1.4433147339       -0.7038092992       -0.0037572622
 C         -0.1346002159       -1.1034784122        0.0085202516
 H          2.4660825912        0.0014688483       -1.0357310921
 H          2.4720649713        0.8862260486        0.5011947351
 H          2.4719849705       -0.8875820298        0.4987251399
 H          0.2887178372        2.0891921687        0.0145814256
 H         -2.3038567518        1.3434005446       -0.0094833509
 H         -2.3038295420       -1.3434469348       -0.0092040910
 H          0.2887433777       -2.0892039044        0.0137224156
          13
        -17.18831140
 C          2.0933740220        0.0000010970       -0.0121196304
 N          0.6593776102       -0.0000158936        0.0169355863
 C         -0.1324276645        1.1034657098        0.0051697146
 C         -1.4411562279        0.7038030836       -0.0067444800
 C         -1.4411676545       -0.7037801901       -0.0064314103
 C         -0.1324522216       -1.1034720559        0.0049771414
 H          2.4675229185        0.0013163774       -1.0412026562
 H          2.4745918884        0.8862368442        0.4956245585
 H          2.4744776882       -0.8875714849        0.4933436055
 H          0.2909284097        2.0891913683        0.0104040602
 H         -2.3016759659        1.3434448538       -0.0117758286
 H         -2.3016977593       -1.3434025808       -0.0112109302
 H          0.2908768431       -2.0892047723        0.0099892670
