 xtb: 6.7.1 (edcfbbe)
          04112511413D

 14 13  0     0  0            999 V2000
   -1.3535   -0.3934   -0.4077 C   0  0  0  0  0  0  0  0  0  0  0  0
    0.0055   -0.0750    0.2290 C   0  0  0  0  0  0  0  0  0  0  0  0
    1.1540   -0.7413   -0.5356 C   0  0  0  0  0  0  0  0  0  0  0  0
    2.3885   -0.5636    0.1133 O   0  0  0  0  0  0  0  0  0  0  0  0
    0.2387    1.3208    0.2260 O   0  0  0  0  0  0  0  0  0  0  0  0
   -2.3969    0.2805    0.2587 O   0  0  0  0  0  0  0  0  0  0  0  0
   -1.5173   -1.4753   -0.4216 H   0  0  0  0  0  0  0  0  0  0  0  0
   -1.3656   -0.0194   -1.4342 H   0  0  0  0  0  0  0  0  0  0  0  0
    0.0208   -0.4376    1.2705 H   0  0  0  0  0  0  0  0  0  0  0  0
    1.1909   -0.3261   -1.5511 H   0  0  0  0  0  0  0  0  0  0  0  0
    0.9910   -1.8187   -0.5924 H   0  0  0  0  0  0  0  0  0  0  0  0
    2.5177    0.3864    0.2531 H   0  0  0  0  0  0  0  0  0  0  0  0
   -0.6086    1.7674    0.3768 H   0  0  0  0  0  0  0  0  0  0  0  0
   -2.5501   -0.1295    1.1217 H   0  0  0  0  0  0  0  0  0  0  0  0
  1  2  1  0  0  0  0
  2  3  1  0  0  0  0
  3  4  1  0  0  0  0
  2  5  1  0  0  0  0
  1  6  1  0  0  0  0
  1  7  1  0  0  0  0
  1  8  1  0  0  0  0
  2  9  1  0  0  0  0
  3 10  1  0  0  0  0
  3 11  1  0  0  0  0
  4 12  1  0  0  0  0
  5 13  1  0  0  0  0
  6 14  1  0  0  0  0
M  END
