 xtb: 6.7.1 (edcfbbe)
          04112511193D

 23 23  0     0  0            999 V2000
   -0.4866    1.2272   -1.9571 C   0  0  0  0  0  0  0  0  0  0  0  0
   -0.1566    0.2620   -0.9293 N   0  0  0  0  0  0  0  0  0  0  0  0
   -1.1533   -0.7253   -0.6405 C   0  0  0  0  0  0  0  0  0  0  0  0
   -2.1311   -0.2851    0.4557 C   0  0  0  0  0  0  0  0  0  0  0  0
   -1.5405    0.0270    1.6188 F   0  0  0  0  0  0  0  0  0  0  0  0
   -2.8607    0.7907    0.1092 F   0  0  0  0  0  0  0  0  0  0  0  0
   -3.0226   -1.2588    0.7383 F   0  0  0  0  0  0  0  0  0  0  0  0
    1.1437    0.1279   -0.4731 C   0  0  0  0  0  0  0  0  0  0  0  0
    2.2040    0.7613   -1.1309 C   0  0  0  0  0  0  0  0  0  0  0  0
    3.4994    0.6397   -0.6670 C   0  0  0  0  0  0  0  0  0  0  0  0
    3.7829   -0.1181    0.4560 C   0  0  0  0  0  0  0  0  0  0  0  0
    2.7423   -0.7490    1.1157 C   0  0  0  0  0  0  0  0  0  0  0  0
    1.4417   -0.6282    0.6660 C   0  0  0  0  0  0  0  0  0  0  0  0
   -1.5599    1.4023   -1.9509 H   0  0  0  0  0  0  0  0  0  0  0  0
   -0.1890    0.8806   -2.9522 H   0  0  0  0  0  0  0  0  0  0  0  0
    0.0061    2.1734   -1.7430 H   0  0  0  0  0  0  0  0  0  0  0  0
   -1.7635   -0.9283   -1.5277 H   0  0  0  0  0  0  0  0  0  0  0  0
   -0.7007   -1.6624   -0.3061 H   0  0  0  0  0  0  0  0  0  0  0  0
    2.0258    1.3435   -2.0190 H   0  0  0  0  0  0  0  0  0  0  0  0
    4.2978    1.1385   -1.1965 H   0  0  0  0  0  0  0  0  0  0  0  0
    4.7963   -0.2129    0.8140 H   0  0  0  0  0  0  0  0  0  0  0  0
    2.9404   -1.3377    1.9994 H   0  0  0  0  0  0  0  0  0  0  0  0
    0.6592   -1.1084    1.2317 H   0  0  0  0  0  0  0  0  0  0  0  0
  1  2  1  0  0  0  0
  2  3  1  0  0  0  0
  3  4  1  0  0  0  0
  4  5  1  0  0  0  0
  4  6  1  0  0  0  0
  4  7  1  0  0  0  0
  2  8  1  0  0  0  0
  8  9  4  0  0  0  0
  9 10  4  0  0  0  0
 10 11  4  0  0  0  0
 11 12  4  0  0  0  0
  8 13  4  0  0  0  0
 12 13  4  0  0  0  0
  1 14  1  0  0  0  0
  1 15  1  0  0  0  0
  1 16  1  0  0  0  0
  3 17  1  0  0  0  0
  3 18  1  0  0  0  0
  9 19  1  0  0  0  0
 10 20  1  0  0  0  0
 11 21  1  0  0  0  0
 12 22  1  0  0  0  0
 13 23  1  0  0  0  0
M  END
