 xtb: 6.7.1 (edcfbbe)
          04112512233D

 20 19  0     0  0            999 V2000
   -2.1929    0.2423   -1.2446 C   0  0  0  0  0  0  0  0  0  0  0  0
   -1.9558    0.0567    0.2524 C   0  0  0  0  0  0  0  0  0  0  0  0
   -2.1332   -1.4045    0.6579 C   0  0  0  0  0  0  0  0  0  0  0  0
   -0.5643    0.5557    0.6414 C   0  0  0  0  0  0  0  0  0  0  0  0
    0.4276   -0.2077   -0.0572 O   0  0  0  0  0  0  0  0  0  0  0  0
    1.6808    0.2200   -0.0070 C   0  0  0  0  0  0  0  0  0  0  0  0
    2.0203    1.2106    0.6098 O   0  0  0  0  0  0  0  0  0  0  0  0
    2.6014   -0.6501   -0.8092 C   0  0  0  0  0  0  0  0  0  0  0  0
   -1.4732   -0.3427   -1.8111 H   0  0  0  0  0  0  0  0  0  0  0  0
   -2.0864    1.2882   -1.5224 H   0  0  0  0  0  0  0  0  0  0  0  0
   -3.1940   -0.0860   -1.5094 H   0  0  0  0  0  0  0  0  0  0  0  0
   -2.6724    0.6712    0.8064 H   0  0  0  0  0  0  0  0  0  0  0  0
   -1.4035   -2.0244    0.1439 H   0  0  0  0  0  0  0  0  0  0  0  0
   -3.1298   -1.7483    0.3955 H   0  0  0  0  0  0  0  0  0  0  0  0
   -1.9964   -1.5235    1.7298 H   0  0  0  0  0  0  0  0  0  0  0  0
   -0.4327    1.6128    0.3858 H   0  0  0  0  0  0  0  0  0  0  0  0
   -0.3905    0.4434    1.7170 H   0  0  0  0  0  0  0  0  0  0  0  0
    2.1676   -1.6363   -0.9329 H   0  0  0  0  0  0  0  0  0  0  0  0
    3.5689   -0.7037   -0.3198 H   0  0  0  0  0  0  0  0  0  0  0  0
    2.7381   -0.1937   -1.7874 H   0  0  0  0  0  0  0  0  0  0  0  0
  1  2  1  0  0  0  0
  2  3  1  0  0  0  0
  2  4  1  0  0  0  0
  4  5  1  0  0  0  0
  5  6  1  0  0  0  0
  6  7  2  0  0  0  0
  6  8  1  0  0  0  0
  1  9  1  0  0  0  0
  1 10  1  0  0  0  0
  1 11  1  0  0  0  0
  2 12  1  0  0  0  0
  3 13  1  0  0  0  0
  3 14  1  0  0  0  0
  3 15  1  0  0  0  0
  4 16  1  0  0  0  0
  4 17  1  0  0  0  0
  8 18  1  0  0  0  0
  8 19  1  0  0  0  0
  8 20  1  0  0  0  0
M  END
