 xtb: 6.7.1 (edcfbbe)
          04112512193D

 17 16  0     0  0            999 V2000
   -2.1902    0.6841   -1.0039 C   0  0  0  0  0  0  0  0  0  0  0  0
   -1.8706    0.1762    0.4039 C   0  0  0  0  0  0  0  0  0  0  0  0
   -0.4502   -0.3239    0.4691 C   0  0  0  0  0  0  0  0  0  0  0  0
   -0.1323   -1.4854    0.6227 O   0  0  0  0  0  0  0  0  0  0  0  0
    0.4223    0.6659    0.3349 O   0  0  0  0  0  0  0  0  0  0  0  0
    1.8232    0.3473    0.3239 C   0  0  0  0  0  0  0  0  0  0  0  0
    2.2856   -0.0531   -1.0688 C   0  0  0  0  0  0  0  0  0  0  0  0
   -3.2160    1.0381   -1.0410 H   0  0  0  0  0  0  0  0  0  0  0  0
   -1.5245    1.5014   -1.2673 H   0  0  0  0  0  0  0  0  0  0  0  0
   -2.0707   -0.1148   -1.7317 H   0  0  0  0  0  0  0  0  0  0  0  0
   -2.5330   -0.6447    0.6764 H   0  0  0  0  0  0  0  0  0  0  0  0
   -1.9803    0.9912    1.1193 H   0  0  0  0  0  0  0  0  0  0  0  0
    2.3144    1.2613    0.6585 H   0  0  0  0  0  0  0  0  0  0  0  0
    2.0020   -0.4639    1.0362 H   0  0  0  0  0  0  0  0  0  0  0  0
    3.3568   -0.2251   -1.0563 H   0  0  0  0  0  0  0  0  0  0  0  0
    1.7849   -0.9679   -1.3782 H   0  0  0  0  0  0  0  0  0  0  0  0
    2.0567    0.7348   -1.7812 H   0  0  0  0  0  0  0  0  0  0  0  0
  1  2  1  0  0  0  0
  2  3  1  0  0  0  0
  3  4  2  0  0  0  0
  3  5  1  0  0  0  0
  5  6  1  0  0  0  0
  6  7  1  0  0  0  0
  1  8  1  0  0  0  0
  1  9  1  0  0  0  0
  1 10  1  0  0  0  0
  2 11  1  0  0  0  0
  2 12  1  0  0  0  0
  6 13  1  0  0  0  0
  6 14  1  0  0  0  0
  7 15  1  0  0  0  0
  7 16  1  0  0  0  0
  7 17  1  0  0  0  0
M  END
