  23
 
 C          4.5011289885       -0.3142116036        0.0130122632
 C          3.9746783530        0.8636122205        0.5179635037
 C          2.6113981709        1.0840819510        0.4869765040
 C          1.7651589331        0.1235911023       -0.0583750881
 C          2.2902447773       -1.0513496387       -0.5807944122
 C          3.6569842848       -1.2647067822       -0.5344476104
 N          0.3715124872        0.3941167828       -0.0881155704
 C         -0.5771369954       -0.6310860912        0.1045181646
 O         -0.2457675169       -1.7834789580        0.3010901712
 C         -1.9352974765       -0.1548339605        0.0582534475
 C         -2.2674115166        1.1673886638       -0.1202643666
 C         -1.1597632668        2.0591643695       -0.2642647027
 N          0.0668463373        1.6702644660       -0.2425580604
 N         -3.5417513016        1.6106579850       -0.1512344656
 Cl        -3.1728070649       -1.3484248118        0.2628333710
 H          5.5661390540       -0.4889113495        0.0450722016
 H          4.6273182215        1.6115859657        0.9429101070
 H          2.1872570503        1.9958290161        0.8773377258
 H          1.6404840563       -1.7948740535       -1.0099541362
 H          4.0627816724       -2.1812509192       -0.9354558692
 H         -1.3159900994        3.1177831364       -0.4027421550
 H         -3.7460523488        2.5799675518       -0.3027469425
 H         -4.2860674040        0.9413490473       -0.0614162143
          23
        -42.86757999
 C          4.4849986550       -0.2803986625       -0.0423884905
 C          3.6601792015       -1.2033282449        0.5771530900
 C          2.2922120714       -1.0006328365        0.6319561608
 C          1.7476354647        0.1352766408        0.0474192241
 C          2.5737402790        1.0687708229       -0.5696102560
 C          3.9385584978        0.8588276131       -0.6106231077
 N          0.3512569401        0.3904998201        0.0851141555
 C         -0.5815600326       -0.6533139083       -0.0730753497
 O         -0.2321774207       -1.8037925800       -0.2469423238
 C         -1.9475567902       -0.1964552015       -0.0275282690
 C         -2.2966320212        1.1236794836        0.1280090541
 C         -1.2018058195        2.0359250295        0.2360081666
 N          0.0306952799        1.6660301028        0.2081164686
 N         -3.5806675855        1.5442367410        0.2231040189
 Cl        -3.1665576921       -1.4122879948       -0.2057308838
 H          5.5510590857       -0.4468779207       -0.0817279884
 H          4.0823484031       -2.0889620831        1.0276196707
 H          1.6557924403       -1.7216071704        1.1165480534
 H          2.1336333845        1.9509978111       -1.0075058581
 H          4.5766641972        1.5843637708       -1.0927618741
 H         -1.3738842057        3.0948667822        0.3507585399
 H         -3.7880506862        2.5213220958        0.1214118340
 H         -4.2994990627        0.8739353702        0.0036459135
