  20
 
 C          1.7743968584       -2.6719436737        0.0129226287
 O          1.3275304080       -1.5489526134       -0.7419959528
 P          1.5339826512       -0.0307207814       -0.3577826702
 O          1.6273351194        0.8752022739       -1.4975446613
 C          0.2156206409        0.5880168148        0.8338776930
 H          0.4433792217        0.3317871074        1.8739701453
 C         -1.1479720212        0.0136036153        0.4671294375
 Cl        -1.2642027474       -1.6399687054        1.0731239145
 Cl        -2.4517704348        0.9771437071        1.1872526240
 Cl        -1.3192623620       -0.0076231462       -1.2930427932
 O          0.2576063943        1.9688776666        0.7370483231
 O          2.8569326831       -0.0791801806        0.5635667754
 C          3.6247807283        1.1095644712        0.6981528521
 H          2.0621743399       -3.4318989750       -0.7130622414
 H          0.9612972115       -3.0465079846        0.6360034899
 H          2.6293100406       -2.4096687128        0.6330934400
 H          0.3309239169        2.2125166425       -0.2010474240
 H          3.2241876835        1.7299719283        1.5011966048
 H          3.6135173557        1.6726454068       -0.2364049266
 H          4.6418859467        0.8013168911        0.9369787333
          20
        -45.18672912
 C          2.2415670344       -2.3615221618        0.4140158438
 O          1.9972350022       -1.0110877647        0.7841133216
 P          1.4109693494        0.0295544013       -0.2994213693
 O          1.2456935265       -0.4727558975       -1.6541494826
 C         -0.1003337431        0.7636737893        0.5504309115
 H          0.0102828177        0.6711887366        1.6362310637
 C         -1.3292990998       -0.0143791453        0.1122557340
 Cl        -1.6933958697        0.3494623925       -1.5809569873
 Cl        -0.9755438466       -1.7287779543        0.2814025367
 Cl        -2.7413882229        0.4025897829        1.1082357412
 O         -0.1878121426        2.1179554565        0.2669184931
 O          2.4416168656        1.2417669117       -0.2653506698
 C          2.8813101043        1.8499362350        0.9440880017
 H          3.2797397978       -2.5954407423        0.6491953821
 H          2.0656688003       -2.4985937041       -0.6540378532
 H          1.5764812541       -3.0100622534        0.9857040865
 H         -0.2617242778        2.2390363191       -0.6921585573
 H          3.0724351589        1.0967505515        1.7086349339
 H          2.1338474856        2.5600708285        1.3000100803
 H          3.8047246751        2.3748267643        0.7021839077
