 20

C      1.165000    -0.485000     1.952000
O      1.384000    -0.500000     0.552000
P      0.402000     0.290000    -0.464000
O      1.018000     0.567000    -1.805000
C     -1.126000    -0.653000    -0.527000
H     -1.542000    -0.695000     0.485000
C     -1.095000    -2.061000    -1.140000
Cl     0.025000    -3.129000    -0.245000
Cl    -2.736000    -2.791000    -1.053000
Cl    -0.597000    -2.029000    -2.860000
O     -2.006000     0.184000    -1.282000
O     -0.011000     1.628000     0.354000
C      0.904000     2.711000     0.387000
H      1.938000    -1.077000     2.449000
H      0.177000    -0.898000     2.171000
H      1.213000     0.547000     2.308000
H     -1.602000     0.317000    -2.156000
H      0.479000     3.528000     0.974000
H      1.107000     3.046000    -0.633000
H      1.833000     2.375000     0.851000
