18
 xtb: 6.7.1 (edcfbbe)
C           -2.55230929360279        0.09289381390883        0.27955561233443
C           -1.26541909109235        0.69049788664997       -0.28002535812888
C           -0.00009442605653        0.00831222108403        0.23323186328260
C            1.26515260713351        0.69067930964088       -0.27997128576621
C            2.55211881974025        0.09300795776407        0.27936657049311
O            0.00000734808625       -1.40080470684717       -0.09995171844004
H           -2.67022515350863       -0.95380484567189       -0.01675833175566
H           -2.55900737998955        0.13589521234071        1.37462538152376
H           -3.42766724039358        0.64151635187840       -0.08229722008964
H           -1.26753081008208        0.63775967744925       -1.37790361910249
H           -1.20588936698293        1.75354565071089       -0.01622198470562
H           -0.00010891566315        0.02618745134419        1.33162216160556
H            1.26719103938113        0.63821343920113       -1.37786400658769
H            1.20557665351593        1.75365751683837       -0.01589970834334
H            2.55866461158252        0.13526749577090        1.37446762055043
H            2.67033699124344       -0.95345990794402       -0.01763898358819
H            3.42738486203060        0.64209765087574       -0.08200066036949
H            0.00014704178967       -1.45965844268792       -1.06589311260306
