23
 xtb: 6.7.1 (edcfbbe)
C            2.09267727359943        1.37907663359586       -0.05281088079103
C            1.27661740752323        0.25133859809731        0.57744646847603
C            0.35846949821629       -0.48940444784499       -0.42514562836041
H            0.67876408201551       -0.19897697366812       -1.43680459652233
C            0.53562929581669       -2.00571996196242       -0.31390251674154
C           -1.13267676903045       -0.08722696858462       -0.32159689908131
C           -1.79770394523957       -0.53832588979346        0.98165989684567
C           -1.33367993217208        1.41580730522591       -0.52305104056031
H            1.44883272784221        2.13727137999676       -0.50983248913800
H            2.72168431896504        1.87916153442072        0.69192743654900
H            2.75127008194872        0.98889156899137       -0.83718743766811
H            0.68255945564754        0.65234965150850        1.40706712901303
H            1.97025025811667       -0.46818706917115        1.02931529661170
H           -0.14394813933589       -2.53989970011729       -0.98830197804235
H            1.56091192783197       -2.29250618954931       -0.57173740863127
H            0.34388150128014       -2.35585342272213        0.70621499940457
H           -1.64539273021660       -0.60393747048988       -1.14618011129917
H           -1.78271429889639       -1.62624954741161        1.09609465762845
H           -2.84550649580780       -0.21953155425421        1.00130924486477
H           -1.30608446662793       -0.09970110278104        1.85765493097440
H           -0.87894154636861        1.75921348307080       -1.45876568137635
H           -0.89028026501984        1.98889994992459        0.29947823740701
H           -2.40083202759287        1.66153378925772       -0.55640218225663
