 xtb: 6.7.1 (edcfbbe)
          04112512343D

 23 22  0     0  0            999 V2000
    2.5476    0.8975   -0.5806 C   0  0  0  0  0  0  0  0  0  0  0  0
    1.4182    0.6474    0.4134 C   0  0  0  0  0  0  0  0  0  0  0  0
    0.3671   -0.3449   -0.1292 C   0  0  0  0  0  0  0  0  0  0  0  0
    0.6846   -0.6521   -1.1323 H   0  0  0  0  0  0  0  0  0  0  0  0
    0.3205   -1.6032    0.7371 C   0  0  0  0  0  0  0  0  0  0  0  0
   -1.0116    0.3278   -0.2961 C   0  0  0  0  0  0  0  0  0  0  0  0
   -1.9324   -0.4900   -1.2018 C   0  0  0  0  0  0  0  0  0  0  0  0
   -1.7066    0.6044    1.0360 C   0  0  0  0  0  0  0  0  0  0  0  0
    2.1556    1.3156   -1.5054 H   0  0  0  0  0  0  0  0  0  0  0  0
    3.2713    1.5973   -0.1684 H   0  0  0  0  0  0  0  0  0  0  0  0
    3.0639   -0.0310   -0.8146 H   0  0  0  0  0  0  0  0  0  0  0  0
    0.9452    1.6025    0.6485 H   0  0  0  0  0  0  0  0  0  0  0  0
    1.8443    0.2617    1.3412 H   0  0  0  0  0  0  0  0  0  0  0  0
    1.2947   -2.0874    0.7314 H   0  0  0  0  0  0  0  0  0  0  0  0
    0.0680   -1.3594    1.7656 H   0  0  0  0  0  0  0  0  0  0  0  0
   -0.4094   -2.3134    0.3574 H   0  0  0  0  0  0  0  0  0  0  0  0
   -0.8328    1.2892   -0.7936 H   0  0  0  0  0  0  0  0  0  0  0  0
   -2.8619    0.0480   -1.3737 H   0  0  0  0  0  0  0  0  0  0  0  0
   -2.1764   -1.4470   -0.7475 H   0  0  0  0  0  0  0  0  0  0  0  0
   -1.4610   -0.6751   -2.1645 H   0  0  0  0  0  0  0  0  0  0  0  0
   -1.0419    1.1191    1.7252 H   0  0  0  0  0  0  0  0  0  0  0  0
   -2.0352   -0.3228    1.4978 H   0  0  0  0  0  0  0  0  0  0  0  0
   -2.5820    1.2299    0.8751 H   0  0  0  0  0  0  0  0  0  0  0  0
  1  2  1  0  0  0  0
  2  3  1  0  0  0  0
  3  4  1  0  0  0  0
  3  5  1  0  0  0  0
  3  6  1  0  0  0  0
  6  7  1  0  0  0  0
  6  8  1  0  0  0  0
  1  9  1  0  0  0  0
  1 10  1  0  0  0  0
  1 11  1  0  0  0  0
  2 12  1  0  0  0  0
  2 13  1  0  0  0  0
  5 14  1  0  0  0  0
  5 15  1  0  0  0  0
  5 16  1  0  0  0  0
  6 17  1  0  0  0  0
  7 18  1  0  0  0  0
  7 19  1  0  0  0  0
  7 20  1  0  0  0  0
  8 21  1  0  0  0  0
  8 22  1  0  0  0  0
  8 23  1  0  0  0  0
M  END
