 xtb: 6.7.1 (edcfbbe)
          04072505513D

 15 14  0     0  0            999 V2000
    2.8646   -0.3783   -0.0807 C   0  0  0  0  0  0  0  0  0  0  0  0
    1.4191   -0.3507    0.4008 C   0  0  0  0  0  0  0  0  0  0  0  0
    0.6451    0.8097   -0.2206 C   0  0  0  0  0  0  0  0  0  0  0  0
   -0.7729    0.9433    0.3138 C   0  0  0  0  0  0  0  0  0  0  0  0
   -1.8827   -0.4212   -0.2056 S   0  0  0  0  0  0  0  0  0  0  0  0
    3.3980   -1.2143    0.3646 H   0  0  0  0  0  0  0  0  0  0  0  0
    3.3763    0.5417    0.1930 H   0  0  0  0  0  0  0  0  0  0  0  0
    2.9032   -0.4828   -1.1626 H   0  0  0  0  0  0  0  0  0  0  0  0
    1.4005   -0.2559    1.4891 H   0  0  0  0  0  0  0  0  0  0  0  0
    0.9371   -1.2935    0.1339 H   0  0  0  0  0  0  0  0  0  0  0  0
    0.6089    0.6848   -1.3051 H   0  0  0  0  0  0  0  0  0  0  0  0
    1.1686    1.7452   -0.0079 H   0  0  0  0  0  0  0  0  0  0  0  0
   -0.7932    0.9842    1.4016 H   0  0  0  0  0  0  0  0  0  0  0  0
   -1.2511    1.8369   -0.0867 H   0  0  0  0  0  0  0  0  0  0  0  0
   -1.3768   -1.3512    0.5944 H   0  0  0  0  0  0  0  0  0  0  0  0
  1  2  1  0  0  0  0
  2  3  1  0  0  0  0
  3  4  1  0  0  0  0
  4  5  1  0  0  0  0
  1  6  1  0  0  0  0
  1  7  1  0  0  0  0
  1  8  1  0  0  0  0
  2  9  1  0  0  0  0
  2 10  1  0  0  0  0
  3 11  1  0  0  0  0
  3 12  1  0  0  0  0
  4 13  1  0  0  0  0
  4 14  1  0  0  0  0
  5 15  1  0  0  0  0
M  END
