  13
 
 C          1.6520000000       -0.6230000000        2.9000000000
 C          1.3880000000       -0.0680000000        1.6520000000
 C          0.2270000000       -0.4200000000        0.9730000000
 C         -0.6320000000       -1.3220000000        1.5800000000
 N         -0.4090000000       -1.8820000000        2.7910000000
 C          0.7300000000       -1.5160000000        3.4210000000
 C         -0.0770000000        0.1410000000       -0.3320000000
 O          0.6600000000        0.9470000000       -0.9090000000
 H          2.5500000000       -0.3620000000        3.4480000000
 H          2.0920000000        0.6370000000        1.2190000000
 H         -1.5540000000       -1.6340000000        1.0990000000
 H          0.8880000000       -1.9750000000        4.3910000000
 H         -1.0230000000       -0.1810000000       -0.8220000000
