17
 xtb: 6.7.1 (edcfbbe)
C           -2.65266974500299        0.44224372247157        0.94192840962776
C           -2.16852791585813        0.37993481462344       -0.50363661242560
C           -0.87852431372675       -0.38999629893584       -0.67131748082766
O            0.16637552411187        0.33596124098792        0.05195216976487
C            1.39743994390375       -0.20357394271930        0.03120520870003
O            1.65766382167756       -1.25118990559720       -0.54029733249716
C            2.38522860417469        0.64488799710565        0.76521577479495
H           -3.61201693612722        0.96403491857629        1.00816749149105
H           -2.78734216134730       -0.56498805782868        1.35125640119843
H           -1.93996555585570        0.97355543882465        1.57997715719973
H           -2.04120292228318        1.38973952066025       -0.91153465211189
H           -2.91708146288983       -0.12102338529563       -1.12877970463519
H           -0.95237907627494       -1.39775494768917       -0.24869531967000
H           -0.58080221394609       -0.46322912062444       -1.72168632012270
H            3.31631867440322        0.09656698929838        0.90401673965242
H            1.97966283876215        0.96143966522940        1.72915275803488
H            2.58120303698049        1.54727334727413        0.17608981153291
