 xtb: 6.7.1 (edcfbbe)
          04112512333D

 21 20  0     0  0            999 V2000
    2.1535    0.6553   -0.8673 C   0  0  0  0  0  0  0  0  0  0  0  0
    1.5719   -0.6291   -0.2848 C   0  0  0  0  0  0  0  0  0  0  0  0
    0.2990   -0.4347    0.5650 C   0  0  0  0  0  0  0  0  0  0  0  0
    0.2851   -1.2517    1.3090 H   0  0  0  0  0  0  0  0  0  0  0  0
   -1.0173   -0.5643   -0.2383 C   0  0  0  0  0  0  0  0  0  0  0  0
   -2.2204   -0.5640    0.7088 C   0  0  0  0  0  0  0  0  0  0  0  0
   -1.1838    0.5330   -1.2863 C   0  0  0  0  0  0  0  0  0  0  0  0
    0.4016    0.7996    1.2488 O   0  0  0  0  0  0  0  0  0  0  0  0
    1.4833    1.1110   -1.5879 H   0  0  0  0  0  0  0  0  0  0  0  0
    3.0963    0.4340   -1.3617 H   0  0  0  0  0  0  0  0  0  0  0  0
    2.3346    1.3708   -0.0703 H   0  0  0  0  0  0  0  0  0  0  0  0
    1.3505   -1.3383   -1.0835 H   0  0  0  0  0  0  0  0  0  0  0  0
    2.3343   -1.0767    0.3562 H   0  0  0  0  0  0  0  0  0  0  0  0
   -0.9800   -1.5377   -0.7392 H   0  0  0  0  0  0  0  0  0  0  0  0
   -3.1217   -0.8311    0.1627 H   0  0  0  0  0  0  0  0  0  0  0  0
   -2.0833   -1.2853    1.5121 H   0  0  0  0  0  0  0  0  0  0  0  0
   -2.3726    0.4232    1.1395 H   0  0  0  0  0  0  0  0  0  0  0  0
   -2.2007    0.5289   -1.6718 H   0  0  0  0  0  0  0  0  0  0  0  0
   -0.5057    0.3812   -2.1208 H   0  0  0  0  0  0  0  0  0  0  0  0
   -0.9831    1.5053   -0.8422 H   0  0  0  0  0  0  0  0  0  0  0  0
   -0.3306    0.8680    1.8746 H   0  0  0  0  0  0  0  0  0  0  0  0
  1  2  1  0  0  0  0
  2  3  1  0  0  0  0
  3  4  1  0  0  0  0
  3  5  1  0  0  0  0
  5  6  1  0  0  0  0
  5  7  1  0  0  0  0
  3  8  1  0  0  0  0
  1  9  1  0  0  0  0
  1 10  1  0  0  0  0
  1 11  1  0  0  0  0
  2 12  1  0  0  0  0
  2 13  1  0  0  0  0
  5 14  1  0  0  0  0
  6 15  1  0  0  0  0
  6 16  1  0  0  0  0
  6 17  1  0  0  0  0
  7 18  1  0  0  0  0
  7 19  1  0  0  0  0
  7 20  1  0  0  0  0
  8 21  1  0  0  0  0
M  END
