 xtb: 6.7.1 (edcfbbe)
          04112511493D

 21 20  0     0  0            999 V2000
    1.7807   -0.6168    1.0889 C   0  0  0  0  0  0  0  0  0  0  0  0
    1.1774    0.4618    0.1917 C   0  0  0  0  0  0  0  0  0  0  0  0
    0.8386    1.3046    0.8142 H   0  0  0  0  0  0  0  0  0  0  0  0
    0.0059   -0.0581   -0.6481 C   0  0  0  0  0  0  0  0  0  0  0  0
   -1.2474   -0.4706    0.1290 C   0  0  0  0  0  0  0  0  0  0  0  0
   -1.8938    0.7147    0.8432 C   0  0  0  0  0  0  0  0  0  0  0  0
   -2.2500   -1.1034   -0.8360 C   0  0  0  0  0  0  0  0  0  0  0  0
    2.1362    0.9472   -0.7408 O   0  0  0  0  0  0  0  0  0  0  0  0
    2.1157   -1.4559    0.4836 H   0  0  0  0  0  0  0  0  0  0  0  0
    2.6309   -0.2207    1.6401 H   0  0  0  0  0  0  0  0  0  0  0  0
    1.0435   -0.9668    1.8044 H   0  0  0  0  0  0  0  0  0  0  0  0
   -0.2541    0.7287   -1.3603 H   0  0  0  0  0  0  0  0  0  0  0  0
    0.3717   -0.9095   -1.2264 H   0  0  0  0  0  0  0  0  0  0  0  0
   -0.9735   -1.2230    0.8752 H   0  0  0  0  0  0  0  0  0  0  0  0
   -2.8230    0.4054    1.3162 H   0  0  0  0  0  0  0  0  0  0  0  0
   -2.1173    1.5069    0.1322 H   0  0  0  0  0  0  0  0  0  0  0  0
   -1.2403    1.1157    1.6131 H   0  0  0  0  0  0  0  0  0  0  0  0
   -2.5463   -0.3851   -1.5973 H   0  0  0  0  0  0  0  0  0  0  0  0
   -1.8140   -1.9676   -1.3312 H   0  0  0  0  0  0  0  0  0  0  0  0
   -3.1405   -1.4262   -0.3021 H   0  0  0  0  0  0  0  0  0  0  0  0
    2.9247    1.2384   -0.2635 H   0  0  0  0  0  0  0  0  0  0  0  0
  1  2  1  0  0  0  0
  2  3  1  0  0  0  0
  2  4  1  0  0  0  0
  4  5  1  0  0  0  0
  5  6  1  0  0  0  0
  5  7  1  0  0  0  0
  2  8  1  0  0  0  0
  1  9  1  0  0  0  0
  1 10  1  0  0  0  0
  1 11  1  0  0  0  0
  4 12  1  0  0  0  0
  4 13  1  0  0  0  0
  5 14  1  0  0  0  0
  6 15  1  0  0  0  0
  6 16  1  0  0  0  0
  6 17  1  0  0  0  0
  7 18  1  0  0  0  0
  7 19  1  0  0  0  0
  7 20  1  0  0  0  0
  8 21  1  0  0  0  0
M  END
