17
CONF63
C -2.9969495213 0.0255116022 0.2632675667
C -1.6571869729 0.7430152850 0.2075650980
C -0.4859896996 -0.1957115706 0.1318426534
O -0.5597828893 -1.4111226538 0.0457292235
O 0.6844025303 0.4685847285 0.1639235250
C 1.8966831325 -0.3475091003 0.0821608774
C 3.0731711792 0.5907130868 0.1695551859
H -3.1506135881 -0.5952619965 -0.6237775994
H -3.0638808816 -0.6172916750 1.1456693559
H -3.8082992279 0.7563836546 0.3116377248
H -1.5098368677 1.3876335483 1.0818619514
H -1.5966441346 1.4052884850 -0.6652575254
H 1.8844876124 -1.0658152341 0.9072409904
H 1.8785435305 -0.8950683150 -0.8650331161
H 3.0756146497 1.1319236102 1.1200136351
H 3.9971955497 0.0086585002 0.1040262954
H 3.0635970611 1.3131000764 -0.6516658627
17
CONF35
C -3.0046677516 0.0654358724 0.0199684827
C -1.6584399915 0.7218322723 0.2780927756
C -0.4920983584 -0.1550785117 -0.0803891324
O -0.5696120922 -1.2718263610 -0.5666542078
O 0.6805375592 0.4450486410 0.1993014284
C 1.8923126151 -0.3122395258 -0.1153263527
C 3.0671820885 0.5421546336 0.2857303468
H -3.1186152004 -0.8478004903 0.6106887611
H -3.8111368257 0.7506768556 0.2941211427
H -3.1226873717 -0.1939929321 -1.0357408193
H -1.5453518741 1.0051331180 1.3312170758
H -1.5520923678 1.6522130761 -0.2931251417
H 1.8633789700 -1.2547748807 0.4397120690
H 1.8924312414 -0.5319609703 -1.1872510130
H 3.0769046084 1.4846196909 -0.2694601341
H 3.0471592318 0.7608542714 1.3573158441
H 3.9927863242 0.0031974086 0.0628829017
17
CONF66
C -2.9869951238 0.2623483678 -0.2449526535
C -1.6561580812 0.6992620419 0.3460257896
C -0.4793476831 -0.0196176497 -0.2511658581
O -0.5442665085 -0.9344374214 -1.0561897258
O 0.6857060910 0.4637446435 0.2200792872
C 1.9049292294 -0.1732270446 -0.2782145694
C 3.0715008321 0.5643176289 0.3278408427
H -3.8042993209 0.8051665088 0.2370288081
H -3.0282428948 0.4676797141 -1.3184891391
H -3.1541026473 -0.8078360653 -0.0956252940
H -1.6242586575 0.5217148998 1.4283979007
H -1.4911477329 1.7747724507 0.2152086780
H 1.8871484018 -1.2268169842 0.0171444716
H 1.9051676925 -0.1109809496 -1.3703452434
H 4.0020925123 0.1134964753 -0.0293333892
H 3.0655814226 1.6177057772 0.0332335986
H 3.0554815589 0.5000120974 1.4196826796
17
CONF40
C -3.0055985454 0.0363529200 0.0629604822
C -1.6624363945 0.6883724408 0.3497211188
C -0.4929892061 -0.1357072747 -0.1102715017
O -0.5655127334 -1.1624117050 -0.7656041132
O 0.6760053328 0.4037291908 0.2848328919
C 1.8914992480 -0.2982791311 -0.1273981370
C 3.0594004192 0.4568253182 0.4543014310
H -3.8150765835 0.6864852039 0.4051852938
H -3.1399943414 -0.1394461118 -1.0076950427
H -3.0965576363 -0.9227602272 0.5807018567
H -1.5316075393 0.8893828070 1.4187539664
H -1.5807922624 1.6619267417 -0.1500971505
H 1.8415768550 -1.3250332701 0.2468267491
H 1.9213373550 -0.3202761167 -1.2210305108
H 3.9877361050 -0.0445626509 0.1651895252
H 3.0918059730 1.4834048067 0.0783721255
H 3.0073777771 0.4792607972 1.5466086001
17
CONF39
C -3.0044327152 0.0362652209 0.0855149980
C -1.6602407597 0.7131883762 0.3006921183
C -0.4918480492 -0.1637956554 -0.0511630578
O -0.5671736618 -1.2727053385 -0.5560094092
O 0.6788886913 0.4278354974 0.2503593314
C 1.8909771322 -0.3269272712 -0.0677616323
C 3.0660559863 0.5183488534 0.3527773812
H -3.1425123491 -0.2456169471 -0.9617350854
H -3.0935946060 -0.8666042661 0.6961306114
H -3.8123597024 0.7172298545 0.3639964562
H -1.5332237411 1.0354576558 1.3402018484
H -1.5720361613 1.6223835131 -0.3069811163
H 1.8570400751 -1.2773425766 0.4735801122
H 1.8975733020 -0.5313292178 -1.1426862190
H 3.0419506075 0.7198724516 1.4275246058
H 3.9908462273 -0.0198085054 0.1250929550
H 3.0805593466 1.4692715415 -0.1874357400
17
CONF64
C -2.9937155748 0.0406482060 0.3099709198
C -1.6554658055 0.7482841277 0.1696964833
C -0.4845472688 -0.1941150582 0.1635818589
O -0.5579999699 -1.4122173036 0.1707411036
O 0.6850479798 0.4711547893 0.1402930554
C 1.8987241392 -0.3470498781 0.1145973071
C 3.0722753583 0.5985048102 0.1101102683
H -3.0452223562 -0.5238367718 1.2453580843
H -3.8042044981 0.7741996171 0.3106244994
H -3.1635651324 -0.6534891714 -0.5176548843
H -1.4961435018 1.4720301867 0.9775624922
H -1.6073302419 1.3261235630 -0.7621900307
H 1.8966064551 -0.9930532751 0.9976665076
H 1.8723199802 -0.9727565551 -0.7827949288
H 3.9988130272 0.0169215931 0.0935241188
H 3.0556259061 1.2431793913 -0.7735814425
H 3.0760872727 1.2245545217 1.0073086217
17
CONF41
C -3.0054638204 0.1406363983 -0.1054346111
C -1.6709749574 0.5987440671 0.4603381858
C -0.4937243069 -0.0799414347 -0.1810034762
O -0.5579348825 -0.9292426377 -1.0549866986
O 0.6709845872 0.3611672278 0.3309790924
C 1.8895002786 -0.2332546433 -0.2188089733
C 3.0560617079 0.3934119065 0.5013654748
H -3.1444381276 -0.9352293461 0.0324674404
H -3.8230040456 0.6576500428 0.4036981809
H -3.0774325389 0.3594727878 -1.1745237842
H -1.6083269942 0.4105276850 1.5389802395
H -1.5333549419 1.6795936095 0.3379333192
H 1.8459693133 -1.3153350876 -0.0631961230
H 1.9161328630 -0.0304412001 -1.2937571513
H 3.0125019113 0.1884751132 1.5748645388
H 3.9851894909 -0.0299655369 0.1085062356
H 3.0798618612 1.4758346478 0.3461259948
17
CONF59
C -2.1047452100 1.3523208101 0.3285284970
C -1.9438537011 -0.1572475632 0.2019415982
C -0.5583010028 -0.6602881900 -0.0980264935
O -0.3196543316 -1.7922803624 -0.4944357780
O 0.3985607349 0.2498697534 0.1348917770
C 1.7787938183 -0.1750218341 -0.1061540016
C 2.6671731548 0.9931638123 0.2368754534
H -1.5193109310 1.7519254802 1.1606163819
H -1.7912059486 1.8613804666 -0.5876793539
H -3.1559023243 1.5946235866 0.5080828080
H -2.5945535827 -0.5641175537 -0.5789091017
H -2.2429611673 -0.6571729905 1.1333865847
H 1.9844522378 -1.0465065064 0.5224640868
H 1.8688022615 -0.4656519131 -1.1570943079
H 3.7101557828 0.7106582253 0.0656910927
H 2.4382879824 1.8592693249 -0.3910246075
H 2.5562402738 1.2759746312 1.2878107835
17
CONF38
C -2.1034513796 1.2450660539 0.6793526259
C -1.9613575886 -0.0639350722 -0.0857207020
C -0.5703372216 -0.6219548963 -0.2129384717
O -0.3304214755 -1.7552700667 -0.6048910232
O 0.3875911266 0.2523446473 0.1266404930
C 1.7708384276 -0.2118285246 0.0019357190
C 2.6602103698 0.9307859407 0.4195679707
H -3.1596553151 1.5214127870 0.7387835818
H -1.7206253518 1.1516075881 1.6994767332
H -1.5687519791 2.0602675713 0.1854924838
H -2.3289368313 0.0469537603 -1.1144587718
H -2.5691322917 -0.8561581963 0.3638115584
H 1.8973999216 -1.0874695456 0.6453461449
H 1.9405341108 -0.5070912076 -1.0375952376
H 3.7049270886 0.6141029426 0.3493581491
H 2.5195195814 1.7975125012 -0.2323145397
H 2.4601161092 1.2267351537 1.4533356408
17
CONF1
C -2.8947815303 -0.1552235465 0.2166004390
C -1.6549469436 0.7245450732 0.2052942723
C -0.3985579734 -0.0268620371 -0.1352600930
O -0.3134536589 -1.2379828416 -0.2541022127
O 0.6453817763 0.8124103465 -0.2910554026
C 1.9536677302 0.2106959122 -0.5511984616
C 2.6082937382 -0.2291206914 0.7382130172
H -3.7746739140 0.4450844542 0.4625385940
H -3.0594959341 -0.6164400701 -0.7615638388
H -2.8081566796 -0.9527977875 0.9595661364
H -1.4891442621 1.1876030277 1.1866032101
H -1.7544291487 1.5541692716 -0.5033377068
H 1.8288722954 -0.6164117125 -1.2546138314
H 2.5192427379 1.0097548799 -1.0342066627
H 2.0299807982 -1.0152652299 1.2313351983
H 3.6050085189 -0.6238284084 0.5166631949
H 2.7185698572 0.6156302776 1.4243913842
17
CONF2
C -2.8841441440 -0.1674957988 0.2830429881
C -1.6647600196 0.7308444430 0.1507449182
C -0.4002904330 -0.0269086524 -0.1441125449
O -0.3145660917 -1.2391521624 -0.2501565894
O 0.6474576369 0.8096336634 -0.2866272393
C 1.9563516654 0.2060400329 -0.5359206746
C 2.6003512045 -0.2362113715 0.7583310600
H -2.7598858755 -0.8851470410 1.0989855404
H -3.7707273089 0.4366520440 0.4931590003
H -3.0639959804 -0.7273519897 -0.6391687532
H -1.4906812601 1.3058017575 1.0683634029
H -1.7973369095 1.4729047131 -0.6455206230
H 1.8367173019 -0.6205538278 -1.2408578508
H 2.5275624540 1.0042163258 -1.0135959323
H 3.6006718446 -0.6262440286 0.5444274058
H 2.7009479106 0.6064480686 1.4486510480
H 2.0203261273 -1.0263691861 1.2429674816
17
CONF37
C -2.0954044050 1.1621013275 0.8249202518
C -1.9571664504 -0.0593270435 -0.0731359495
C -0.5595711937 -0.4721358593 -0.4461519669
O -0.3110916819 -1.3560561486 -1.2541118706
O 0.3924624554 0.2148611649 0.2018436382
C 1.7793474110 -0.1483352825 -0.0994211090
C 2.6613878853 0.7202931684 0.7594202721
H -1.6567802068 2.0496192908 0.3606352921
H -3.1547332711 1.3645832997 1.0057902868
H -1.6120018307 1.0064851971 1.7927373166
H -2.4938439343 0.0812803291 -1.0180500494
H -2.4101215712 -0.9418329679 0.3964703123
H 1.9103106326 -1.2118562491 0.1203036795
H 1.9513640518 0.0177156039 -1.1669883271
H 3.7081245040 0.4762599926 0.5554013172
H 2.5066715486 1.7801529783 0.5379003701
H 2.4695748645 0.5466737185 1.8221524202
