 xtb: 6.7.1 (edcfbbe)
          04112512523D

 21 20  0     0  0            999 V2000
    2.5487   -0.1683    0.6923 C   0  0  0  0  0  0  0  0  0  0  0  0
    1.1277   -0.6330    0.3946 C   0  0  0  0  0  0  0  0  0  0  0  0
    0.2329    0.5368   -0.0221 C   0  0  0  0  0  0  0  0  0  0  0  0
    0.3819    1.3593    0.6983 H   0  0  0  0  0  0  0  0  0  0  0  0
   -1.2741    0.1991   -0.0505 C   0  0  0  0  0  0  0  0  0  0  0  0
   -1.5657   -1.0227   -0.9192 C   0  0  0  0  0  0  0  0  0  0  0  0
   -1.8441    0.0228    1.3546 C   0  0  0  0  0  0  0  0  0  0  0  0
    0.6787    0.9586   -1.3028 O   0  0  0  0  0  0  0  0  0  0  0  0
    3.1822   -1.0181    0.9325 H   0  0  0  0  0  0  0  0  0  0  0  0
    2.5573    0.5209    1.5341 H   0  0  0  0  0  0  0  0  0  0  0  0
    2.9601    0.3399   -0.1762 H   0  0  0  0  0  0  0  0  0  0  0  0
    1.1500   -1.3528   -0.4236 H   0  0  0  0  0  0  0  0  0  0  0  0
    0.7067   -1.1132    1.2770 H   0  0  0  0  0  0  0  0  0  0  0  0
   -1.7734    1.0641   -0.5068 H   0  0  0  0  0  0  0  0  0  0  0  0
   -2.6340   -1.1061   -1.1032 H   0  0  0  0  0  0  0  0  0  0  0  0
   -1.0532   -0.9323   -1.8742 H   0  0  0  0  0  0  0  0  0  0  0  0
   -1.2300   -1.9323   -0.4286 H   0  0  0  0  0  0  0  0  0  0  0  0
   -2.9228   -0.1012    1.3017 H   0  0  0  0  0  0  0  0  0  0  0  0
   -1.6263    0.8922    1.9707 H   0  0  0  0  0  0  0  0  0  0  0  0
   -1.4258   -0.8563    1.8376 H   0  0  0  0  0  0  0  0  0  0  0  0
    0.1956    1.7534   -1.5636 H   0  0  0  0  0  0  0  0  0  0  0  0
  1  2  1  0  0  0  0
  2  3  1  0  0  0  0
  3  4  1  0  0  0  0
  3  5  1  0  0  0  0
  5  6  1  0  0  0  0
  5  7  1  0  0  0  0
  3  8  1  0  0  0  0
  1  9  1  0  0  0  0
  1 10  1  0  0  0  0
  1 11  1  0  0  0  0
  2 12  1  0  0  0  0
  2 13  1  0  0  0  0
  5 14  1  0  0  0  0
  6 15  1  0  0  0  0
  6 16  1  0  0  0  0
  6 17  1  0  0  0  0
  7 18  1  0  0  0  0
  7 19  1  0  0  0  0
  7 20  1  0  0  0  0
  8 21  1  0  0  0  0
M  END
