 xtb: 6.7.1 (edcfbbe)
          04112511193D

 20 20  0     0  0            999 V2000
    2.1996   -1.5528   -0.3820 C   0  0  0  0  0  0  0  0  0  0  0  0
    0.8131   -1.2996   -0.2740 O   0  0  0  0  0  0  0  0  0  0  0  0
    0.3856    0.0001   -0.1311 C   0  0  0  0  0  0  0  0  0  0  0  0
    1.2586    1.0801   -0.0677 C   0  0  0  0  0  0  0  0  0  0  0  0
    0.7979    2.3759    0.0891 C   0  0  0  0  0  0  0  0  0  0  0  0
   -0.5586    2.6162    0.1864 C   0  0  0  0  0  0  0  0  0  0  0  0
   -1.4395    1.5546    0.1192 C   0  0  0  0  0  0  0  0  0  0  0  0
   -0.9969    0.2445   -0.0405 C   0  0  0  0  0  0  0  0  0  0  0  0
   -2.0094   -0.6769   -0.0772 O   0  0  0  0  0  0  0  0  0  0  0  0
   -1.7710   -2.0401   -0.3755 C   0  0  0  0  0  0  0  0  0  0  0  0
    2.6264   -1.0610   -1.2600 H   0  0  0  0  0  0  0  0  0  0  0  0
    2.2796   -2.6320   -0.4933 H   0  0  0  0  0  0  0  0  0  0  0  0
    2.7327   -1.2369    0.5186 H   0  0  0  0  0  0  0  0  0  0  0  0
    2.3205    0.9125   -0.1377 H   0  0  0  0  0  0  0  0  0  0  0  0
    1.5057    3.1881    0.1357 H   0  0  0  0  0  0  0  0  0  0  0  0
   -0.9339    3.6191    0.3109 H   0  0  0  0  0  0  0  0  0  0  0  0
   -2.5050    1.7060    0.1892 H   0  0  0  0  0  0  0  0  0  0  0  0
   -1.2810   -2.1569   -1.3435 H   0  0  0  0  0  0  0  0  0  0  0  0
   -2.7616   -2.4907   -0.4073 H   0  0  0  0  0  0  0  0  0  0  0  0
   -1.1706   -2.5207    0.3984 H   0  0  0  0  0  0  0  0  0  0  0  0
  1  2  1  0  0  0  0
  2  3  1  0  0  0  0
  3  4  4  0  0  0  0
  4  5  4  0  0  0  0
  5  6  4  0  0  0  0
  6  7  4  0  0  0  0
  3  8  4  0  0  0  0
  7  8  4  0  0  0  0
  8  9  1  0  0  0  0
  9 10  1  0  0  0  0
  1 11  1  0  0  0  0
  1 12  1  0  0  0  0
  1 13  1  0  0  0  0
  4 14  1  0  0  0  0
  5 15  1  0  0  0  0
  6 16  1  0  0  0  0
  7 17  1  0  0  0  0
 10 18  1  0  0  0  0
 10 19  1  0  0  0  0
 10 20  1  0  0  0  0
M  END
