27
 xtb: 6.7.1 (edcfbbe)
C           -2.64502031428954       -1.79585386938821        1.71139130643374
C           -3.39797104914785       -0.78177096433916        0.85584095885045
C           -2.76712082455867       -0.42454146502628       -0.49602840669705
H           -3.38033521770344        0.36893726944818       -0.92716816843936
C           -2.76373999677080       -1.56504199500613       -1.50891163576654
N           -1.43642216885738        0.24881161304164       -0.30791501091107
C           -0.23536447990841       -0.49111350082094       -0.24000745807153
O           -0.23492831522227       -1.71743936628617       -0.31335691609462
C            0.96209183547209        0.30477436656266       -0.08239666487307
C            0.93286103433976        1.65482940431632        0.07734244808916
N           -0.29107649952068        2.26101907446892        0.05811389624466
C           -1.49939684597193        1.62076098549433       -0.10753684627409
O           -2.55048516838194        2.26317154878220       -0.08206148644283
C            2.11787165446886        2.52740404044746        0.29207744980306
Br           2.61085868602576       -0.62908126779904       -0.04061065592326
H           -2.50579960847797       -2.74849803781666        1.19272034269936
H           -1.65995770856513       -1.42118805215616        2.00610920269777
H           -3.20906690891885       -1.99489207039058        2.62815327040242
H           -4.40369958043704       -1.15914446207445        0.63315186224946
H           -3.53159951992490        0.14490347392503        1.42616140428792
H           -2.42002136264751       -2.51249443004715       -1.09713690834526
H           -3.79662432662622       -1.69262730681860       -1.84842019146492
H           -2.15424811122446       -1.32190877664662       -2.38336468988801
H           -0.34861543325120        3.26292417110871        0.19547855004582
H            2.86097836386877        2.35942133845585       -0.49196288760150
H            2.59123083619540        2.28430926990878        1.24921642890594
H            1.83751442729628        3.58210553235886        0.29787790239182
