  19
 
 C         -3.8794992929       -0.2713435802       -0.1227754765
 C         -2.9598804320       -1.3018093855       -0.0689215106
 C         -1.5989499922       -1.0369916195       -0.0454595768
 C         -1.1654162848        0.2783112773       -0.0806708952
 C         -2.0846377700        1.3201655227       -0.1319502163
 C         -3.4370024904        1.0419044762       -0.1504846197
 O          0.1713018408        0.6680930223       -0.0637090195
 C          1.1445044783       -0.2816912102       -0.1856306246
 H          0.9806337115       -0.9728314889       -1.0336335035
 C          2.4866838732        0.4501697618       -0.3877331620
 F          3.3764618015       -0.3684009587       -0.9900595889
 F          3.0241901850        0.8263854220        0.7822875391
 F          1.2242545956       -1.0669069033        0.9382135417
 H         -4.9362603067       -0.4882295278       -0.1370915176
 H         -3.2948506006       -2.3275580388       -0.0390574850
 H         -0.9023823951       -1.8577054756        0.0214108501
 H         -1.7180083812        2.3337631910       -0.1510590686
 H         -4.1474135190        1.8536304434       -0.1876029608
 H          2.3475644350        1.3421483857       -1.0171567177
          19
        -38.95199758
 C         -3.8054719057       -0.1084756573       -0.3342220443
 C         -2.9274705463       -1.1479640761       -0.5778202588
 C         -1.5730491597       -1.0057640661       -0.3173349655
 C         -1.1045941152        0.1970521104        0.1857275105
 C         -1.9817625878        1.2449363754        0.4388212376
 C         -3.3291083243        1.0873658871        0.1799429433
 O          0.2311276070        0.4475550592        0.4892679080
 C          1.1896948628       -0.3774746705       -0.0137911504
 H          1.0313240707       -0.6609505473       -1.0679490086
 C          2.5462781150        0.3268588724        0.1550219230
 F          2.5399139626        1.4854907703       -0.5321058498
 F          3.5325424774       -0.4288348536       -0.3653752309
 F          1.2538250183       -1.5592868123        0.6988721832
 H         -4.8580912441       -0.2297528743       -0.5386041687
 H         -3.2918181367       -2.0856890765       -0.9691688738
 H         -0.9087091694       -1.8380280492       -0.4900546464
 H         -1.5867212893        2.1660256591        0.8356334272
 H         -4.0088663142        1.9023006153        0.3768586265
 H          2.7697374858        0.5355289465        1.2105980375
