 xtb: 6.7.1 (edcfbbe)
          04112512403D

 18 17  0     0  0            999 V2000
   -1.9786    1.4357    0.1267 C   0  0  0  0  0  0  0  0  0  0  0  0
   -1.5038    0.0612   -0.3330 C   0  0  0  0  0  0  0  0  0  0  0  0
   -0.1398   -0.3423    0.2387 C   0  0  0  0  0  0  0  0  0  0  0  0
   -0.1285   -0.1108    1.3106 H   0  0  0  0  0  0  0  0  0  0  0  0
    0.0953   -1.8419    0.0620 C   0  0  0  0  0  0  0  0  0  0  0  0
    0.9989    0.4385   -0.4314 C   0  0  0  0  0  0  0  0  0  0  0  0
    2.2608    0.1928    0.1542 O   0  0  0  0  0  0  0  0  0  0  0  0
   -2.9724    1.6369   -0.2653 H   0  0  0  0  0  0  0  0  0  0  0  0
   -2.0240    1.4791    1.2125 H   0  0  0  0  0  0  0  0  0  0  0  0
   -1.3136    2.2214   -0.2222 H   0  0  0  0  0  0  0  0  0  0  0  0
   -1.4544    0.0361   -1.4237 H   0  0  0  0  0  0  0  0  0  0  0  0
   -2.2382   -0.6831   -0.0184 H   0  0  0  0  0  0  0  0  0  0  0  0
   -0.6052   -2.4156    0.6634 H   0  0  0  0  0  0  0  0  0  0  0  0
    1.1084   -2.0991    0.3619 H   0  0  0  0  0  0  0  0  0  0  0  0
   -0.0326   -2.1205   -0.9818 H   0  0  0  0  0  0  0  0  0  0  0  0
    0.7864    1.5148   -0.4150 H   0  0  0  0  0  0  0  0  0  0  0  0
    1.0988    0.1243   -1.4736 H   0  0  0  0  0  0  0  0  0  0  0  0
    2.2411    0.4911    1.0740 H   0  0  0  0  0  0  0  0  0  0  0  0
  1  2  1  0  0  0  0
  2  3  1  0  0  0  0
  3  4  1  0  0  0  0
  3  5  1  0  0  0  0
  3  6  1  0  0  0  0
  6  7  1  0  0  0  0
  1  8  1  0  0  0  0
  1  9  1  0  0  0  0
  1 10  1  0  0  0  0
  2 11  1  0  0  0  0
  2 12  1  0  0  0  0
  5 13  1  0  0  0  0
  5 14  1  0  0  0  0
  5 15  1  0  0  0  0
  6 16  1  0  0  0  0
  6 17  1  0  0  0  0
  7 18  1  0  0  0  0
M  END
