 xtb: 6.7.1 (edcfbbe)
          04112511553D

 24 24  0     0  0            999 V2000
   -3.1447   -0.1911    0.4240 C   0  0  0  0  0  0  0  0  0  0  0  0
   -2.1602    0.4439   -0.5521 C   0  0  0  0  0  0  0  0  0  0  0  0
   -0.8509   -0.3387   -0.6777 C   0  0  0  0  0  0  0  0  0  0  0  0
    0.0686   -0.2109    0.5411 C   0  0  0  0  0  0  0  0  0  0  0  0
    1.2274   -1.2108    0.4869 C   0  0  0  0  0  0  0  0  0  0  0  0
    2.2439   -0.5724   -0.4632 C   0  0  0  0  0  0  0  0  0  0  0  0
    2.0371    0.9469   -0.3257 C   0  0  0  0  0  0  0  0  0  0  0  0
    0.8073    1.1308    0.5776 C   0  0  0  0  0  0  0  0  0  0  0  0
   -4.0742    0.3731    0.4428 H   0  0  0  0  0  0  0  0  0  0  0  0
   -3.3691   -1.2130    0.1261 H   0  0  0  0  0  0  0  0  0  0  0  0
   -2.7405   -0.2095    1.4328 H   0  0  0  0  0  0  0  0  0  0  0  0
   -2.6299    0.4941   -1.5373 H   0  0  0  0  0  0  0  0  0  0  0  0
   -1.9499    1.4678   -0.2373 H   0  0  0  0  0  0  0  0  0  0  0  0
   -1.0930   -1.3932   -0.8314 H   0  0  0  0  0  0  0  0  0  0  0  0
   -0.3146    0.0091   -1.5616 H   0  0  0  0  0  0  0  0  0  0  0  0
   -0.5230   -0.3586    1.4475 H   0  0  0  0  0  0  0  0  0  0  0  0
    1.6624   -1.3114    1.4827 H   0  0  0  0  0  0  0  0  0  0  0  0
    0.9128   -2.1983    0.1520 H   0  0  0  0  0  0  0  0  0  0  0  0
    3.2623   -0.8676   -0.2142 H   0  0  0  0  0  0  0  0  0  0  0  0
    2.0489   -0.8918   -1.4869 H   0  0  0  0  0  0  0  0  0  0  0  0
    2.9113    1.4292    0.1100 H   0  0  0  0  0  0  0  0  0  0  0  0
    1.8684    1.3998   -1.3025 H   0  0  0  0  0  0  0  0  0  0  0  0
    1.1241    1.3392    1.6005 H   0  0  0  0  0  0  0  0  0  0  0  0
    0.1822    1.9582    0.2465 H   0  0  0  0  0  0  0  0  0  0  0  0
  1  2  1  0  0  0  0
  2  3  1  0  0  0  0
  3  4  1  0  0  0  0
  4  5  1  0  0  0  0
  5  6  1  0  0  0  0
  6  7  1  0  0  0  0
  4  8  1  0  0  0  0
  7  8  1  0  0  0  0
  1  9  1  0  0  0  0
  1 10  1  0  0  0  0
  1 11  1  0  0  0  0
  2 12  1  0  0  0  0
  2 13  1  0  0  0  0
  3 14  1  0  0  0  0
  3 15  1  0  0  0  0
  4 16  1  0  0  0  0
  5 17  1  0  0  0  0
  5 18  1  0  0  0  0
  6 19  1  0  0  0  0
  6 20  1  0  0  0  0
  7 21  1  0  0  0  0
  7 22  1  0  0  0  0
  8 23  1  0  0  0  0
  8 24  1  0  0  0  0
M  END
