24
 xtb: 6.7.1 (edcfbbe)
C           -2.20223586707483        0.26609285275140       -1.12937124608481
C           -2.19955308680473       -0.59181368692295        0.13379950035613
C           -1.23155150611577       -0.15509147378447        1.24166716862071
C            0.26849000334500       -0.05493892096605        0.90701960130485
C            0.85585844022013       -1.17298873637278       -0.00131829120466
C            1.85850471497247       -0.47103899567791       -0.95049704666241
C            2.10126548773460        0.90798325100470       -0.32073286573742
C            0.72881966823781        1.26356467526823        0.25329375296741
H           -2.36736935326563        1.32317557150028       -0.89162295143128
H           -1.25708326707351        0.18865270656665       -1.67534779546110
H           -3.00104130961077       -0.05176700347873       -1.80837241839958
H           -3.20882166750193       -0.58855678249238        0.56506631496113
H           -1.99928581280368       -1.63474456494540       -0.14077334919186
H           -1.55446602802100        0.82144566900845        1.62972302125720
H           -1.35468513891193       -0.86215026862041        2.07255805904930
H            0.79986472531153       -0.10643499101060        1.86678235605511
H            1.35089102959252       -1.93713483574018        0.60652885604089
H            0.07599199810318       -1.68209852760727       -0.57380432873807
H            2.78044295910567       -1.04317389384643       -1.09247210702579
H            1.40286050234298       -0.33760495385296       -1.93866262160645
H            2.83301920438435        0.82851108045960        0.49373097160714
H            2.47845213853751        1.64337501624683       -1.03876616545008
H            0.75980805069219        2.08510623449807        0.97730456582963
H            0.05473993371284        1.56031832492485       -0.55701308017553
