21
 xtb: 6.7.1 (edcfbbe)
C            2.09080197315379       -0.72019044802455       -0.76663193862959
C            1.46622652074335       -0.47470364492494        0.60441139554876
C            0.19228323527556        0.37312032142439        0.58663228912168
H           -0.20875867934750        0.41111299065579        1.61368094311640
C           -0.91824056131074       -0.14574274179145       -0.33018918689811
C           -1.27024654096707       -1.59559893626004        0.00739954469256
C           -2.16703592501126        0.73346057331664       -0.22912403293392
O            0.49760753482414        1.72430868309852        0.15891098370879
H            2.28097866501659        0.22109060025611       -1.29247861703834
H            1.44601758209871       -1.33609538023832       -1.40131798737884
H            3.04755538349794       -1.24156224149538       -0.66368962856473
H            1.24464662688434       -1.42964616696016        1.09453557108530
H            2.19017555754508        0.03587269383049        1.25379532805470
H           -0.54641147149305       -0.10442009706484       -1.36338900792073
H           -0.43968916009817       -2.28099059634804       -0.18434619655734
H           -1.55227762817032       -1.69047519986466        1.06328231431187
H           -2.12192103848737       -1.92714695025137       -0.59534410642865
H           -2.95440036520682        0.35659294828636       -0.89030574214358
H           -1.96307872788387        1.77050575261210       -0.50770303278061
H           -2.55819118462252        0.72638078214112        0.79594026846430
H            1.21574047661752        2.04471303208260        0.71988146978892
