 xtb: 6.7.1 (edcfbbe)
          04112512353D

 17 16  0     0  0            999 V2000
   -3.3419   -0.0143    0.0117 C   0  0  0  0  0  0  0  0  0  0  0  0
   -2.0048    0.6447    0.3259 C   0  0  0  0  0  0  0  0  0  0  0  0
   -0.8445   -0.2268   -0.1318 C   0  0  0  0  0  0  0  0  0  0  0  0
    0.3808    0.4452    0.1928 O   0  0  0  0  0  0  0  0  0  0  0  0
    1.5206   -0.1630   -0.1116 C   0  0  0  0  0  0  0  0  0  0  0  0
    1.5661   -1.2512   -0.6498 O   0  0  0  0  0  0  0  0  0  0  0  0
    2.7128    0.6509    0.2906 C   0  0  0  0  0  0  0  0  0  0  0  0
   -4.1577    0.6204    0.3442 H   0  0  0  0  0  0  0  0  0  0  0  0
   -3.4442   -0.1788   -1.0579 H   0  0  0  0  0  0  0  0  0  0  0  0
   -3.4218   -0.9742    0.5155 H   0  0  0  0  0  0  0  0  0  0  0  0
   -1.9115    0.8139    1.3991 H   0  0  0  0  0  0  0  0  0  0  0  0
   -1.9341    1.6107   -0.1752 H   0  0  0  0  0  0  0  0  0  0  0  0
   -0.8520   -1.2022    0.3666 H   0  0  0  0  0  0  0  0  0  0  0  0
   -0.8730   -0.4002   -1.2130 H   0  0  0  0  0  0  0  0  0  0  0  0
    3.3504    0.8004   -0.5767 H   0  0  0  0  0  0  0  0  0  0  0  0
    3.2835    0.0961    1.0312 H   0  0  0  0  0  0  0  0  0  0  0  0
    2.3896    1.6023    0.6982 H   0  0  0  0  0  0  0  0  0  0  0  0
  1  2  1  0  0  0  0
  2  3  1  0  0  0  0
  3  4  1  0  0  0  0
  4  5  1  0  0  0  0
  5  6  2  0  0  0  0
  5  7  1  0  0  0  0
  1  8  1  0  0  0  0
  1  9  1  0  0  0  0
  1 10  1  0  0  0  0
  2 11  1  0  0  0  0
  2 12  1  0  0  0  0
  3 13  1  0  0  0  0
  3 14  1  0  0  0  0
  7 15  1  0  0  0  0
  7 16  1  0  0  0  0
  7 17  1  0  0  0  0
M  END
