 xtb: 6.7.1 (edcfbbe)
          04112510353D

 18 17  0     0  0            999 V2000
   -2.3786    0.8000   -0.0237 C   0  0  0  0  0  0  0  0  0  0  0  0
   -1.4728   -0.3537   -0.4403 C   0  0  0  0  0  0  0  0  0  0  0  0
   -0.3157   -0.6050    0.5444 C   0  0  0  0  0  0  0  0  0  0  0  0
    1.0095   -0.0368    0.0971 C   0  0  0  0  0  0  0  0  0  0  0  0
    1.1684    1.2228   -0.2775 C   0  0  0  0  0  0  0  0  0  0  0  0
    2.1531   -1.0061    0.1046 C   0  0  0  0  0  0  0  0  0  0  0  0
   -2.8345    0.5946    0.9425 H   0  0  0  0  0  0  0  0  0  0  0  0
   -3.1726    0.9392   -0.7542 H   0  0  0  0  0  0  0  0  0  0  0  0
   -1.8206    1.7291    0.0538 H   0  0  0  0  0  0  0  0  0  0  0  0
   -2.0821   -1.2570   -0.5123 H   0  0  0  0  0  0  0  0  0  0  0  0
   -1.0632   -0.1544   -1.4325 H   0  0  0  0  0  0  0  0  0  0  0  0
   -0.5768   -0.1763    1.5151 H   0  0  0  0  0  0  0  0  0  0  0  0
   -0.1954   -1.6796    0.6885 H   0  0  0  0  0  0  0  0  0  0  0  0
    2.1253    1.6008   -0.5968 H   0  0  0  0  0  0  0  0  0  0  0  0
    0.3581    1.9301   -0.2861 H   0  0  0  0  0  0  0  0  0  0  0  0
    1.9461   -1.8316   -0.5753 H   0  0  0  0  0  0  0  0  0  0  0  0
    3.0789   -0.5252   -0.1994 H   0  0  0  0  0  0  0  0  0  0  0  0
    2.2839   -1.4220    1.1028 H   0  0  0  0  0  0  0  0  0  0  0  0
  1  2  1  0  0  0  0
  2  3  1  0  0  0  0
  3  4  1  0  0  0  0
  4  5  2  0  0  0  0
  4  6  1  0  0  0  0
  1  7  1  0  0  0  0
  1  8  1  0  0  0  0
  1  9  1  0  0  0  0
  2 10  1  0  0  0  0
  2 11  1  0  0  0  0
  3 12  1  0  0  0  0
  3 13  1  0  0  0  0
  5 14  1  0  0  0  0
  5 15  1  0  0  0  0
  6 16  1  0  0  0  0
  6 17  1  0  0  0  0
  6 18  1  0  0  0  0
M  END
