22
 xtb: 6.7.1 (edcfbbe)
C           -2.32813680326672        0.92963976800193        1.34432060004705
C           -2.34728247069305       -0.01425171487420        0.14033886966906
C           -2.52300443412541        0.74319907819343       -1.17755957448287
C           -1.16777892205812       -0.99672936339589        0.12508417853191
C            0.24659429691357       -0.48605325884849        0.01531970070701
C            1.29161476897752       -1.42273728637067        0.09155174781801
N            2.57752788065132       -1.09240840634855       -0.00140831735015
C            2.83639503926288        0.21446511780273       -0.17348724633106
C            1.81887449701480        1.14819597292553       -0.24896377747621
N            0.52289179853645        0.81094572265563       -0.15797527698391
H           -3.26930804258290        1.48703390653339        1.40455883061366
H           -1.51341703830326        1.65518765468330        1.27646836025549
H           -2.20932435225820        0.37170485575206        2.27984725892685
H           -3.23126264781732       -0.65682853225632        0.25550953304191
H           -1.71710690621881        1.46290117434635       -1.33960944582265
H           -2.53877716555031        0.05238405640475       -2.02794450053710
H           -3.47062444503219        1.29291045679298       -1.17553179696573
H           -1.31329983984315       -1.70627411866960       -0.70167019769182
H           -1.21148131388444       -1.60988325590892        1.03549884825855
H            1.06048799387369       -2.47705896259977        0.23319556947252
H            3.87770134537180        0.51482253397534       -0.25220137307645
H            2.04658566967775        2.20293545215238       -0.38750170470947
