22
 xtb: 6.7.1 (edcfbbe)
C           -4.07092737382473        0.49137836797711        0.94490581145092
C           -3.47995379028001        0.52277709332748       -0.44604980684177
O           -2.02577271237662        0.66396305355989       -0.39120487831396
C           -1.30950151665334       -0.46024749567152       -0.19134627224356
O           -1.81553239876995       -1.57272531306480       -0.10363285029992
C            0.13940392213472       -0.20361731349841       -0.10212293246317
C            0.68166131738713        1.08852495543846       -0.16466194666561
C            2.04848364954857        1.28465048430573       -0.07169887090512
C            2.89493782290405        0.18355112555354        0.08466186162387
C            2.37070462949302       -1.11148333435388        0.14704100795793
C            1.00215613341147       -1.29615369368172        0.05526281621968
O            4.23433536594551        0.43150556012160        0.17236046976610
H           -3.73079474292027       -0.38443044577169        1.50386231229337
H           -3.80333118580920        1.39489501231279        1.50038684825298
H           -5.16189733307054        0.44700507734576        0.86682052821162
H           -3.80719375369120        1.40506360740151       -0.99929415587526
H           -3.72678461606435       -0.37402672673823       -1.01953545662768
H            0.03093646540363        1.94655791309192       -0.28381771864049
H            2.47328818933649        2.28185117607514       -0.11726102468693
H            3.03838413159761       -1.95963892482130        0.26763252821289
H            0.59064194842691       -2.29829041729000        0.10436242714144
H            4.71278827589877       -0.40317933787190        0.28217407339592
