 xtb: 6.7.1 (edcfbbe)
          04112512423D

 17 16  0     0  0            999 V2000
   -2.8588   -0.1646    0.3686 C   0  0  0  0  0  0  0  0  0  0  0  0
   -1.6706    0.7446    0.0874 C   0  0  0  0  0  0  0  0  0  0  0  0
   -0.4056   -0.0340   -0.1685 C   0  0  0  0  0  0  0  0  0  0  0  0
   -0.3340   -1.2375   -0.2927 O   0  0  0  0  0  0  0  0  0  0  0  0
    0.6438    0.7793   -0.2626 O   0  0  0  0  0  0  0  0  0  0  0  0
    1.9369    0.2004   -0.5066 C   0  0  0  0  0  0  0  0  0  0  0  0
    2.6000   -0.2338    0.7916 C   0  0  0  0  0  0  0  0  0  0  0  0
   -3.0124   -0.8496   -0.4613 H   0  0  0  0  0  0  0  0  0  0  0  0
   -2.6794   -0.7572    1.2619 H   0  0  0  0  0  0  0  0  0  0  0  0
   -3.7575    0.4272    0.5115 H   0  0  0  0  0  0  0  0  0  0  0  0
   -1.4831    1.4228    0.9208 H   0  0  0  0  0  0  0  0  0  0  0  0
   -1.8550    1.3583   -0.7967 H   0  0  0  0  0  0  0  0  0  0  0  0
    1.8157   -0.6531   -1.1807 H   0  0  0  0  0  0  0  0  0  0  0  0
    2.5034    0.9931   -0.9963 H   0  0  0  0  0  0  0  0  0  0  0  0
    3.5979   -0.6034    0.5794 H   0  0  0  0  0  0  0  0  0  0  0  0
    2.6660    0.6065    1.4775 H   0  0  0  0  0  0  0  0  0  0  0  0
    2.0212   -1.0281    1.2577 H   0  0  0  0  0  0  0  0  0  0  0  0
  1  2  1  0  0  0  0
  2  3  1  0  0  0  0
  3  4  2  0  0  0  0
  3  5  1  0  0  0  0
  5  6  1  0  0  0  0
  6  7  1  0  0  0  0
  1  8  1  0  0  0  0
  1  9  1  0  0  0  0
  1 10  1  0  0  0  0
  2 11  1  0  0  0  0
  2 12  1  0  0  0  0
  6 13  1  0  0  0  0
  6 14  1  0  0  0  0
  7 15  1  0  0  0  0
  7 16  1  0  0  0  0
  7 17  1  0  0  0  0
M  END
