21
 xtb: 6.7.1 (edcfbbe)
C            2.17891949399651       -1.02527947217256       -0.58927100777334
C            1.20577821337372       -0.19700301888133        0.22880519079640
C            1.77000557769462        1.17327976173519        0.57799565399279
O            0.00298576756933       -0.05274606723178       -0.56111892785953
C           -1.20231680500701        0.10424666467612        0.22199652162385
C           -2.18029094457508        0.90057357641136       -0.62164933209473
C           -1.75700394609375       -1.26024844534840        0.60797255774040
H            3.12020244174467       -1.14972747550587       -0.04554970769357
H            1.76600114342005       -2.01662438063921       -0.79968826589429
H            2.39637854877676       -0.52744845103561       -1.54076902665091
H            0.95979665149978       -0.73841504456559        1.15383840919290
H            2.65018861290476        1.06990818187835        1.22124171876626
H            1.03241665162615        1.78179718280328        1.11081019803171
H            2.06763725486150        1.70291624179985       -0.33372369829990
H           -0.96281559600012        0.67399760102431        1.13182736209993
H           -2.38838009488288        0.37545953421502       -1.56047261803922
H           -3.12531216674290        1.02874032466488       -0.08520769941567
H           -1.77753767112707        1.89058807283114       -0.85646356456397
H           -2.04645498060072       -1.81746738897807       -0.28996752276273
H           -2.64043301310718       -1.14673042341529        1.24493051144592
H           -1.01678479033133       -1.84793331798402        1.15999582128610
