 17

C     -2.889000    -0.864000     1.443000
C     -1.444000    -0.411000     1.574000
C     -0.604000    -1.307000     2.486000
C      0.849000    -0.849000     2.614000
C      1.648000    -1.757000     3.522000
O      1.214000    -2.745000     4.098000
O      2.938000    -1.345000     3.624000
H     -3.437000    -0.186000     0.781000
H     -2.958000    -1.869000     1.018000
H     -3.390000    -0.865000     2.417000
H     -1.433000     0.607000     1.981000
H     -0.987000    -0.359000     0.579000
H     -1.069000    -1.318000     3.480000
H     -0.636000    -2.341000     2.120000
H      0.878000     0.164000     3.032000
H      1.334000    -0.849000     1.633000
H      3.157000    -0.537000     3.112000
