13
 xtb: 6.7.1 (edcfbbe)
C           -1.91534244496486       -0.30404280466918        0.46430587220001
O           -1.02636847522628       -0.18900478861767       -0.64939043303990
C           -0.02832052038226        0.82163368506878       -0.46708555325301
C            1.05859236787549        0.44447030720791        0.51360319953428
O            1.73907141223467       -0.72059872862786        0.01643789775106
H           -2.39615327241931        0.66044003084705        0.68182847328734
H           -1.40337602905293       -0.66032718954079        1.36757541218445
H           -2.68036596070874       -1.03258619006982        0.18512701163176
H            0.41312955612816        0.98430565893703       -1.45644260034394
H           -0.49471055930133        1.76163101537629       -0.13417475316051
H            0.64308713941858        0.25072078078097        1.51133499586405
H            1.74885631030579        1.29703910709959        0.59293707726742
H            2.39082418455342       -0.97933863949358        0.67918951223742
