22
CONF2
C 5.5011341868 -0.6416112567 -0.1254323378
C 4.4618148473 0.4668736984 -0.0138496021
C 3.0491080985 -0.0826672879 -0.0480297033
O 2.7928897991 -1.2695296964 -0.1560368474
N 2.1061544264 0.8984487934 0.0554734465
C 0.7194412926 0.7906098301 0.0634666867
C -0.0324671587 1.9619886335 0.1832747193
C -1.4108253388 1.9143590301 0.1972141267
C -2.0660878098 0.6964445670 0.0918214848
C -1.3235049704 -0.4710247767 -0.0276024657
C 0.0592773513 -0.4315174485 -0.0423795726
Cl -2.1241621776 -2.0034624158 -0.1605113548
Cl -3.7987002505 0.6365872717 0.1095015446
H 5.3716791590 -1.1875370369 -1.0566356640
H 5.3867057845 -1.3492319044 0.6919617316
H 6.5038050905 -0.2256053897 -0.0955654419
H 4.5784425659 1.1705418555 -0.8400344964
H 4.5980210588 1.0116024495 0.9221048711
H 2.4508169834 1.8469631447 0.1396769078
H 0.4631205278 2.9157682104 0.2661020237
H -1.9908132471 2.8172811697 0.2896064194
H 0.6223322350 -1.3449186079 -0.1355679086
22
CONF6
C 5.3327754202 -0.3190634060 0.6975720485
C 4.4807725759 0.3245242259 -0.3968638715
C 3.0481203743 -0.1601934383 -0.2979465373
O 2.7669588331 -1.3486506531 -0.3036498687
N 2.1282703444 0.8388553380 -0.2050809955
C 0.7416408268 0.7523331188 -0.1123075625
C 0.0121025224 1.9416619994 -0.0437647093
C -1.3639357888 1.9180918667 0.0486135040
C -2.0388115918 0.7066388859 0.0746537647
C -1.3181976775 -0.4787118974 0.0077910857
C 0.0621126925 -0.4631612262 -0.0849286506
Cl -2.1434045995 -2.0033732989 0.0393733485
Cl -3.7681072822 0.6767845310 0.1897411844
H 5.2236860527 -1.4003124445 0.6605708812
H 5.0157006442 0.0235280584 1.6794673534
H 6.3795745077 -0.0654770399 0.5587862907
H 4.8597375248 0.0091851706 -1.3710957910
H 4.5392372034 1.4093220171 -0.3314373413
H 2.4827491258 1.7873668128 -0.2095891286
H 0.5226140783 2.8909930136 -0.0631916413
H -1.9267565110 2.8349540885 0.1009750681
H 0.6082204832 -1.3900727060 -0.1362266560
22
CONF5
C 5.7301220235 0.1674441619 -0.0872538710
C 4.4579410023 -0.6709522321 -0.0844466057
C 3.2150499867 0.1964479883 -0.0502060468
O 3.2462457013 1.4141099217 -0.0322864084
N 2.0656882469 -0.5406903506 -0.0422026828
C 0.7447012985 -0.1067697135 -0.0143465997
C 0.3825409165 1.2396052459 0.0101494456
C -0.9501983665 1.6005401977 0.0371383324
C -1.9417990362 0.6323742408 0.0402695603
C -1.5869284227 -0.7109706021 0.0159012726
C -0.2559380273 -1.0807647535 -0.0112274496
Cl -2.8127271670 -1.9365149041 0.0193869292
Cl -3.6136981833 1.0974055049 0.0743247642
H 5.7737112378 0.7890687532 0.8034540614
H 5.7455458736 0.8256515731 -0.9522434200
H 6.6062980295 -0.4735504354 -0.1146326459
H 4.4461584934 -1.3269110900 0.7878126499
H 4.4201263855 -1.2928959553 -0.9806042715
H 2.1763305851 -1.5469535796 -0.0590021866
H 1.1474610410 1.9976567054 0.0079874760
H -1.2287260447 2.6409638479 0.0560146641
H -0.0056951671 -2.1290216030 -0.0298155991
22
CONF4
C 4.9511404130 1.2048386065 0.0133547782
C 4.5334476415 -0.2546991036 -0.1167591929
C 3.0533184904 -0.5719549446 -0.0459992283
O 2.6716937910 -1.7315674027 0.0495213969
N 2.2196232954 0.4972590977 -0.1104952591
C 0.8294132415 0.5344512069 -0.0794658918
C 0.2045726835 1.7812352241 -0.1620229450
C -1.1708457520 1.8812099806 -0.1355550021
C -1.9493947945 0.7385572661 -0.0259389174
C -1.3331897432 -0.5033098787 0.0565947332
C 0.0457141241 -0.6117433833 0.0304651683
Cl -2.2892113289 -1.9436461161 0.1944294057
Cl -3.6781417309 0.8639431103 0.0075330224
H 4.6133174874 1.7960973200 -0.8342947621
H 6.0367294805 1.2572218029 0.0333716307
H 4.5819988985 1.6386221177 0.9393583196
H 5.0070783702 -0.8544647188 0.6635683723
H 4.8845358795 -0.6613315972 -1.0688983734
H 2.6592390281 1.4057603126 -0.1913295836
H 0.7967567706 2.6780526950 -0.2471153318
H -1.6533920830 2.8420776395 -0.1992129367
H 0.5115287928 -1.5807665534 0.0951706887
22
CONF8
C 5.4388686397 -0.0216717271 -0.8645296480
C 4.5046513754 -0.5811820546 0.2091923508
C 3.2259482944 0.2304732674 0.2606801107
O 3.2351768650 1.4386837219 0.4338199514
N 2.0921714516 -0.5060736897 0.0966902330
C 0.7654889676 -0.0839750367 0.0953860440
C 0.3857239278 1.2491642512 0.2444039769
C -0.9509421077 1.5965580857 0.2319024073
C -1.9285975842 0.6275758348 0.0714044284
C -1.5558739631 -0.7028823472 -0.0778897532
C -0.2208339621 -1.0588911958 -0.0665868353
Cl -2.7641624744 -1.9292711489 -0.2784805247
Cl -3.6051328300 1.0752918594 0.0570994719
H 5.0111741327 -0.1620931363 -1.8541245957
H 6.4016684862 -0.5223234740 -0.8246414710
H 5.5880080489 1.0431758525 -0.7031508282
H 4.9875943018 -0.4833329980 1.1834369040
H 4.3015138360 -1.6338654921 0.0217230871
H 2.2114107771 -1.5023427229 -0.0373767366
H 1.1400332220 2.0075043139 0.3696795196
H -1.2432172511 2.6270716872 0.3462289909
H 0.0429375702 -2.0974392657 -0.1837355065
22
CONF1
C 4.9665837750 0.5500510498 -1.0169845791
C 4.5106559780 0.0230392511 0.3463532708
C 3.0626681278 -0.4146278503 0.2851721752
O 2.7309776970 -1.5886257354 0.2270711061
N 2.1912583146 0.6304250820 0.2769404291
C 0.8033974576 0.6230205892 0.1830238477
C 0.1357267497 1.8499484723 0.1837263141
C -1.2397513510 1.9012813836 0.0940115003
C -1.9750874254 0.7288549412 0.0018051256
C -1.3158164564 -0.4936275301 0.0000530769
C 0.0633734029 -0.5533468493 0.0896988185
Cl -2.2178154819 -1.9703534934 -0.1145159364
Cl -3.7038169239 0.7932634685 -0.1094685945
H 4.8384436305 -0.2175996938 -1.7764401234
H 6.0180746175 0.8190008038 -0.9734264511
H 4.3960593638 1.4256607904 -1.3137839617
H 4.6364326679 0.7922618379 1.1081796920
H 5.1086124738 -0.8462979480 0.6199839169
H 2.6004064332 1.5550468594 0.3352877461
H 0.6941343821 2.7693314598 0.2549846333
H -1.7556450925 2.8467984065 0.0947304260
H 0.5625974381 -1.5077562101 0.0875816083
22
CONF7
C 4.6682877797 -1.3292145071 -0.7288411168
C 4.6039839430 -0.0787694748 0.1405342329
C 3.2502445135 0.5788785762 0.3158136802
O 3.1641334896 1.7290942952 0.7237528177
N 2.1797010067 -0.2005321250 0.0134809681
C 0.8242539190 0.1029054100 0.0837720846
C 0.3357648299 1.3396317584 0.5029802027
C -1.0251716466 1.5703443770 0.5476658862
C -1.9196268010 0.5785503196 0.1776862193
C -1.4384758685 -0.6560042158 -0.2414144074
C -0.0784780120 -0.8949840729 -0.2893474405
Cl -2.5419951537 -1.9084738726 -0.7082962965
Cl -3.6279354016 0.8792825199 0.2385263183
H 4.1747525049 -2.1754824497 -0.2569675974
H 5.7102397340 -1.6026445708 -0.8738205906
H 4.2324011867 -1.1480171128 -1.7081253405
H 5.2650560329 0.6934645841 -0.2578000713
H 4.9660016961 -0.3047413059 1.1471773753
H 2.3835921330 -1.1370869919 -0.3118646620
H 1.0258552983 2.1143485809 0.7920152712
H -1.4015120413 2.5262654027 0.8717861848
H 0.2703343988 -1.8603810560 -0.6182643510
22
CONF3
C 4.8909147586 -0.5679627265 -1.1834662098
C 4.5422997918 -0.3956797118 0.2974504043
C 3.2473789836 0.3742534820 0.4458902104
O 3.2143762308 1.5549640756 0.7531853118
N 2.1462368550 -0.3798432012 0.1772565038
C 0.8059641706 -0.0080811856 0.1670724899
C 0.3703725774 1.2845797553 0.4556083576
C -0.9771040506 1.5858802583 0.4280495439
C -1.9100765815 0.6101521104 0.1143883460
C -1.4815483844 -0.6799219853 -0.1743506689
C -0.1351282784 -0.9896893783 -0.1492307679
Cl -2.6335936694 -1.9133410180 -0.5684291805
Cl -3.6011136592 0.9997525311 0.0839025117
H 5.8426363703 -1.0826536104 -1.2793702023
H 4.9748748427 0.4042421309 -1.6632646826
H 4.1307308225 -1.1436763013 -1.7042261940
H 5.3271852816 0.1759658866 0.7926480754
H 4.4563993843 -1.3694857280 0.7792806990
H 2.3144846169 -1.3497607883 -0.0596874578
H 1.0903383854 2.0471761754 0.7005881348
H -1.3130550577 2.5847767109 0.6510710753
H 0.1726673308 -1.9973177811 -0.3767018705
