22
CONF2
C 5.5266104625 -0.6375695731 -0.1263457077
C 4.4769282133 0.4555753518 -0.0149116437
C 3.0613048345 -0.0804160857 -0.0468559684
O 2.7996018607 -1.2801520732 -0.1562631843
N 2.1017581410 0.8918166947 0.0563108430
C 0.7072800153 0.7703746595 0.0631539496
C -0.0366169467 1.9532606992 0.1834643686
C -1.4191224511 1.9182843788 0.1969573288
C -2.0919106852 0.7040473721 0.0918021242
C -1.3530727199 -0.4705836548 -0.0273013251
C 0.0371426369 -0.4519504132 -0.0426910178
Cl -2.1537721493 -2.0194961467 -0.1635009029
Cl -3.8387754179 0.6879695760 0.1122309604
H 5.4243374347 -1.1907950215 -1.0639079439
H 5.4465744601 -1.3502439970 0.6991900457
H 6.5263402632 -0.1960918310 -0.0986464753
H 4.5817206640 1.1825329449 -0.8304433350
H 4.6022832561 1.0254105897 0.9144633705
H 2.4460574988 1.8399055259 0.1424435954
H 0.4742722714 2.9074617384 0.2664279748
H -1.9837586686 2.8389538815 0.2895294935
H 0.5830047071 -1.3779392174 -0.1365506499
22
CONF7
C 4.6787488779 -1.3940969187 -0.6501804788
C 4.6200874196 -0.0632859374 0.0894061440
C 3.2636064172 0.5421603664 0.3810760425
O 3.1723302955 1.6042756164 1.0079144939
N 2.1833720072 -0.1466594914 -0.0879101396
C 0.8182469395 0.1495895635 0.0406102738
C 0.3180597737 1.3745816969 0.4963504710
C -1.0542635275 1.5691318879 0.5736365702
C -1.9430822161 0.5681916998 0.2008875529
C -1.4410042444 -0.6492990134 -0.2616873632
C -0.0736277050 -0.8600352607 -0.3395011758
Cl -2.5137205741 -1.9378797847 -0.7495431929
Cl -3.6611468667 0.8579201819 0.3145907207
H 4.1866776908 -2.1951226959 -0.0881005382
H 5.7226263248 -1.6878903273 -0.7886085003
H 4.2252543731 -1.3312689500 -1.6451367923
H 5.1696891577 0.7072874693 -0.4649680143
H 5.1193941874 -0.1428240707 1.0623176749
H 2.3827337412 -1.0277955327 -0.5425356043
H 0.9850147067 2.1732580056 0.7824901747
H -1.4397239734 2.5191064588 0.9264758722
H 0.3020960293 -1.8129175775 -0.6970884820
22
CONF5
C 5.7568181005 0.1483855499 -0.0894179941
C 4.4726382450 -0.6638713639 -0.0846208756
C 3.2270218521 0.1970145635 -0.0477406657
O 3.2602122978 1.4289633721 -0.0266098509
N 2.0629224417 -0.5252485434 -0.0404578985
C 0.7368170690 -0.0775759979 -0.0123487232
C 0.3582453413 1.2702192399 0.0118831972
C -0.9887654921 1.6049526831 0.0371152487
C -1.9731091814 0.6245978875 0.0391657404
C -1.5932028583 -0.7179861488 0.0157949387
C -0.2533206956 -1.0683207619 -0.0096286299
Cl -2.7903699839 -1.9916873089 0.0179852823
Cl -3.6556090250 1.0944653207 0.0704247920
H 5.8378717437 0.7673422263 0.8083891373
H 5.8065172627 0.8061663552 -0.9614688702
H 6.6197996768 -0.5220837929 -0.1191536390
H 4.4411820038 -1.3408910357 0.7784712079
H 4.4133344537 -1.3059295627 -0.9726150522
H 2.1744925924 -1.5311901732 -0.0599023121
H 1.0993179111 2.0542626656 0.0109198353
H -1.2785083293 2.6494943764 0.0553667965
H 0.0279151285 -2.1158094874 -0.0273773148
22
CONF6
C 5.3602982982 -0.3103354249 0.6972729195
C 4.4904564228 0.3193195418 -0.3924537325
C 3.0610256502 -0.1618308595 -0.2948593412
O 2.7804556138 -1.3649477344 -0.2972097952
N 2.1234326353 0.8284813443 -0.2027854339
C 0.7284323217 0.7302541258 -0.1109697621
C 0.0103353794 1.9324215918 -0.0423959980
C -1.3696749920 1.9236911981 0.0468127131
C -2.0635581283 0.7168332380 0.0708914199
C -1.3491811760 -0.4774736298 0.0056104651
C 0.0383752688 -0.4847906814 -0.0850511912
Cl -2.1779580684 -2.0162173153 0.0374524550
Cl -3.8058927791 0.7343866022 0.1836820626
H 5.3386409179 -1.4013013134 0.6333779635
H 5.0130147333 -0.0147057949 1.6921393876
H 6.3967384425 0.0182279345 0.5847907380
H 4.8550782204 0.0140294122 -1.3808802093
H 4.5439899730 1.4105627489 -0.3453405118
H 2.4809895760 1.7742684388 -0.2034702777
H 0.5394271631 2.8804006036 -0.0597683800
H -1.9161147067 2.8585247863 0.0977954708
H 0.5667427721 -1.4245818189 -0.1331825547
22
CONF1
C 5.1703942974 0.3581833587 -1.0665578197
C 4.4987042585 0.1513631790 0.2965569517
C 3.0603362402 -0.2660268277 0.1069390021
O 2.7624332373 -1.3840407172 -0.3260991839
N 2.1347831877 0.6933685320 0.4106282350
C 0.7411586960 0.6461324823 0.2622414851
C 0.0492379260 1.8633960105 0.2940501335
C -1.3289460232 1.8903643716 0.1748838144
C -2.0427305038 0.7056053531 0.0179602977
C -1.3536446794 -0.5057310645 -0.0054655639
C 0.0303303171 -0.5476939617 0.1180539083
Cl -2.2107252683 -2.0185138634 -0.1819919606
Cl -3.7805644446 0.7697393250 -0.1429871140
H 5.1226965941 -0.5552768000 -1.6657338515
H 6.2217313163 0.6234269692 -0.9294540131
H 4.6826178084 1.1639997554 -1.6232804714
H 4.5720887440 1.0606498510 0.8994790773
H 4.9989321164 -0.6575769372 0.8385480253
H 2.5050083262 1.5934530873 0.6865239598
H 0.5955510530 2.7938754985 0.4106562177
H -1.8574012528 2.8365103028 0.1971537447
H 0.5394620855 -1.4994871337 0.1117880288
22
CONF8
C 5.4691930922 -0.0392443762 -0.8634250968
C 4.5130414608 -0.5792595610 0.2019648981
C 3.2382167828 0.2318710582 0.2463452935
O 3.2554936628 1.4564835942 0.4055862190
N 2.0885069632 -0.4924485646 0.0946172333
C 0.7559502325 -0.0572625373 0.0978667583
C 0.3615275882 1.2771711902 0.2496285137
C -0.9887397622 1.5992297212 0.2373743730
C -1.9595355154 0.6183355278 0.0762438062
C -1.5631957065 -0.7117063979 -0.0763438704
C -0.2192903929 -1.0484067107 -0.0661166524
Cl -2.7418632400 -1.9833033806 -0.2832837339
Cl -3.6460593370 1.0709906235 0.0681684217
H 5.0221266939 -0.1110764105 -1.8599053826
H 6.3965889985 -0.6179766465 -0.8618749124
H 5.7187031980 1.0074957930 -0.6710093075
H 4.9738629795 -0.4919275491 1.1935614665
H 4.3017289604 -1.6379842135 0.0293525041
H 2.2102698352 -1.4884227395 -0.0309869482
H 1.0936909689 2.0596440661 0.3754734196
H -1.2918383986 2.6336404558 0.3548892536
H 0.0752183748 -2.0856998312 -0.1869706391
22
CONF4
C 4.9763133382 1.2155334254 -0.0427549206
C 4.5490531692 -0.2463771679 -0.0900351301
C 3.0709851858 -0.5697219236 -0.0599423822
O 2.6869223831 -1.7456856418 -0.0490831308
N 2.2184243718 0.4946908512 -0.0533144756
C 0.8166408675 0.5139640680 -0.0466823543
C 0.2009254611 1.7708859372 -0.1229511101
C -1.1776395424 1.8807191642 -0.1202131429
C -1.9716752058 0.7399391046 -0.0408668025
C -1.3592327367 -0.5088616135 0.0379002059
C 0.0257107256 -0.6349324042 0.0371851059
Cl -2.3168249186 -1.9682421913 0.1415745885
Cl -3.7105362684 0.9066600898 -0.0417487782
H 4.6160885984 1.7769459261 -0.9117285530
H 6.0680635635 1.2753415481 -0.0490663755
H 4.6272176725 1.7129846661 0.8684042349
H 4.9853064116 -0.8009383114 0.7490002446
H 4.9337548997 -0.7283506690 -0.9972295904
H 2.6471383077 1.4100006788 -0.0778167576
H 0.8087282030 2.6679464531 -0.1855370744
H -1.6437586372 2.8574160275 -0.1816572207
H 0.4743185688 -1.6140643199 0.1028549109
