 xtb: 6.7.1 (edcfbbe)
          04112511403D

 22 22  0     0  0            999 V2000
   -4.2476   -0.0254   -0.2177 C   0  0  0  0  0  0  0  0  0  0  0  0
   -2.7535   -0.1227   -0.4993 C   0  0  0  0  0  0  0  0  0  0  0  0
   -1.9184    0.2444    0.7337 C   0  0  0  0  0  0  0  0  0  0  0  0
   -0.4510    0.1378    0.4340 C   0  0  0  0  0  0  0  0  0  0  0  0
    0.2267   -1.0627    0.6117 C   0  0  0  0  0  0  0  0  0  0  0  0
    1.5663   -1.1800    0.2998 C   0  0  0  0  0  0  0  0  0  0  0  0
    2.2622   -0.0858   -0.2050 C   0  0  0  0  0  0  0  0  0  0  0  0
    1.5953    1.1188   -0.3893 C   0  0  0  0  0  0  0  0  0  0  0  0
    0.2529    1.2215   -0.0725 C   0  0  0  0  0  0  0  0  0  0  0  0
    3.5841   -0.2435   -0.4985 O   0  0  0  0  0  0  0  0  0  0  0  0
   -4.5147    0.9870    0.0768 H   0  0  0  0  0  0  0  0  0  0  0  0
   -4.8201   -0.2885   -1.1037 H   0  0  0  0  0  0  0  0  0  0  0  0
   -4.5284   -0.7013    0.5868 H   0  0  0  0  0  0  0  0  0  0  0  0
   -2.4892    0.5469   -1.3207 H   0  0  0  0  0  0  0  0  0  0  0  0
   -2.5024   -1.1395   -0.8091 H   0  0  0  0  0  0  0  0  0  0  0  0
   -2.1792   -0.4284    1.5529 H   0  0  0  0  0  0  0  0  0  0  0  0
   -2.1623    1.2642    1.0378 H   0  0  0  0  0  0  0  0  0  0  0  0
   -0.3012   -1.9196    1.0039 H   0  0  0  0  0  0  0  0  0  0  0  0
    2.0949   -2.1099    0.4400 H   0  0  0  0  0  0  0  0  0  0  0  0
    2.1246    1.9766   -0.7793 H   0  0  0  0  0  0  0  0  0  0  0  0
   -0.2535    2.1644   -0.2198 H   0  0  0  0  0  0  0  0  0  0  0  0
    3.9555    0.5839   -0.8393 H   0  0  0  0  0  0  0  0  0  0  0  0
  1  2  1  0  0  0  0
  2  3  1  0  0  0  0
  3  4  1  0  0  0  0
  4  5  4  0  0  0  0
  5  6  4  0  0  0  0
  6  7  4  0  0  0  0
  7  8  4  0  0  0  0
  4  9  4  0  0  0  0
  8  9  4  0  0  0  0
  7 10  1  0  0  0  0
  1 11  1  0  0  0  0
  1 12  1  0  0  0  0
  1 13  1  0  0  0  0
  2 14  1  0  0  0  0
  2 15  1  0  0  0  0
  3 16  1  0  0  0  0
  3 17  1  0  0  0  0
  5 18  1  0  0  0  0
  6 19  1  0  0  0  0
  8 20  1  0  0  0  0
  9 21  1  0  0  0  0
 10 22  1  0  0  0  0
M  END
