 xtb: 6.7.1 (edcfbbe)
          04112511193D

 14 13  0     0  0            999 V2000
   -1.2446    0.2411   -0.2575 C   0  0  0  0  0  0  0  0  0  0  0  0
    0.1264    0.6662    0.2925 C   0  0  0  0  0  0  0  0  0  0  0  0
    1.2508   -0.2090   -0.2964 C   0  0  0  0  0  0  0  0  0  0  0  0
    1.1260   -1.5678    0.0582 O   0  0  0  0  0  0  0  0  0  0  0  0
    0.3052    2.0203   -0.0551 O   0  0  0  0  0  0  0  0  0  0  0  0
   -1.6461   -1.0275    0.1911 O   0  0  0  0  0  0  0  0  0  0  0  0
   -1.2127    0.2832   -1.3546 H   0  0  0  0  0  0  0  0  0  0  0  0
   -1.9986    0.9507    0.0912 H   0  0  0  0  0  0  0  0  0  0  0  0
    0.1043    0.5467    1.3878 H   0  0  0  0  0  0  0  0  0  0  0  0
    2.2263    0.1858    0.0137 H   0  0  0  0  0  0  0  0  0  0  0  0
    1.1966   -0.1712   -1.3876 H   0  0  0  0  0  0  0  0  0  0  0  0
    1.3383   -1.6785    0.9958 H   0  0  0  0  0  0  0  0  0  0  0  0
    1.1266    2.3544    0.3330 H   0  0  0  0  0  0  0  0  0  0  0  0
   -0.9514   -1.6654   -0.0486 H   0  0  0  0  0  0  0  0  0  0  0  0
  1  2  1  0  0  0  0
  2  3  1  0  0  0  0
  3  4  1  0  0  0  0
  2  5  1  0  0  0  0
  1  6  1  0  0  0  0
  1  7  1  0  0  0  0
  1  8  1  0  0  0  0
  2  9  1  0  0  0  0
  3 10  1  0  0  0  0
  3 11  1  0  0  0  0
  4 12  1  0  0  0  0
  5 13  1  0  0  0  0
  6 14  1  0  0  0  0
M  END
