  18
 
 C         -0.6450000000        0.3350000000        0.8030000000
 C         -1.8900000000        1.0450000000        0.2810000000
 C         -2.8430000000        0.1480000000       -0.5330000000
 C         -2.1690000000       -0.4440000000       -1.7720000000
 C         -4.0810000000        0.9470000000       -0.9520000000
 O         -3.2780000000       -0.9430000000        0.2800000000
 H         -0.0250000000        1.0390000000        1.3670000000
 H         -0.0350000000       -0.0570000000       -0.0150000000
 H         -0.9060000000       -0.4910000000        1.4710000000
 H         -1.5800000000        1.9070000000       -0.3220000000
 H         -2.4270000000        1.4410000000        1.1530000000
 H         -2.8570000000       -1.0790000000       -2.3400000000
 H         -1.7840000000        0.3390000000       -2.4330000000
 H         -1.2990000000       -1.0480000000       -1.4880000000
 H         -4.7790000000        0.3350000000       -1.5330000000
 H         -4.6090000000        1.3380000000       -0.0740000000
 H         -3.8000000000        1.8190000000       -1.5540000000
 H         -3.7330000000       -0.5520000000        1.0400000000
