 9

C      0.880000    -1.450000     2.174000
C      1.349000    -1.445000     0.758000
C      0.821000    -0.679000    -0.203000
H      0.090000    -2.197000     2.303000
H      0.483000    -0.478000     2.483000
H      1.709000    -1.707000     2.841000
H      2.171000    -2.109000     0.506000
H      1.209000    -0.722000    -1.214000
H      0.000000     0.000000     0.000000
