 xtb: 6.7.1 (edcfbbe)
          04112511463D

 21 21  0     0  0            999 V2000
   -3.6004    0.1153    0.0043 C   0  0  0  0  0  0  0  0  0  0  0  0
   -2.3367    0.7502    0.0006 O   0  0  0  0  0  0  0  0  0  0  0  0
   -1.2186   -0.0364   -0.0000 C   0  0  0  0  0  0  0  0  0  0  0  0
   -1.2153   -1.4261   -0.0004 C   0  0  0  0  0  0  0  0  0  0  0  0
   -0.0168   -2.1159   -0.0008 C   0  0  0  0  0  0  0  0  0  0  0  0
    1.1940   -1.4479   -0.0006 C   0  0  0  0  0  0  0  0  0  0  0  0
    1.2047   -0.0609   -0.0003 C   0  0  0  0  0  0  0  0  0  0  0  0
    0.0008    0.6509   -0.0002 C   0  0  0  0  0  0  0  0  0  0  0  0
   -0.0058    2.0163   -0.0001 O   0  0  0  0  0  0  0  0  0  0  0  0
    2.3325    0.7283    0.0000 O   0  0  0  0  0  0  0  0  0  0  0  0
    3.5947    0.0917    0.0044 C   0  0  0  0  0  0  0  0  0  0  0  0
   -4.3246    0.9267    0.0061 H   0  0  0  0  0  0  0  0  0  0  0  0
   -3.7320   -0.4979    0.8997 H   0  0  0  0  0  0  0  0  0  0  0  0
   -3.7371   -0.4983   -0.8901 H   0  0  0  0  0  0  0  0  0  0  0  0
   -2.1420   -1.9742   -0.0004 H   0  0  0  0  0  0  0  0  0  0  0  0
   -0.0269   -3.1941   -0.0011 H   0  0  0  0  0  0  0  0  0  0  0  0
    2.1140   -2.0072   -0.0008 H   0  0  0  0  0  0  0  0  0  0  0  0
    0.9152    2.3253    0.0001 H   0  0  0  0  0  0  0  0  0  0  0  0
    3.7229   -0.5215    0.8997 H   0  0  0  0  0  0  0  0  0  0  0  0
    4.3218    0.9006    0.0062 H   0  0  0  0  0  0  0  0  0  0  0  0
    3.7286   -0.5226   -0.8893 H   0  0  0  0  0  0  0  0  0  0  0  0
  1  2  1  0  0  0  0
  2  3  1  0  0  0  0
  3  4  4  0  0  0  0
  4  5  4  0  0  0  0
  5  6  4  0  0  0  0
  6  7  4  0  0  0  0
  3  8  4  0  0  0  0
  7  8  4  0  0  0  0
  8  9  1  0  0  0  0
  7 10  1  0  0  0  0
 10 11  1  0  0  0  0
  1 12  1  0  0  0  0
  1 13  1  0  0  0  0
  1 14  1  0  0  0  0
  4 15  1  0  0  0  0
  5 16  1  0  0  0  0
  6 17  1  0  0  0  0
  9 18  1  0  0  0  0
 11 19  1  0  0  0  0
 11 20  1  0  0  0  0
 11 21  1  0  0  0  0
M  END
