16
 xtb: 6.7.1 (edcfbbe)
C            2.07588799327753        1.03046189505767        0.48918160012636
C            1.50204099036143       -0.05436996601346       -0.42180053071081
C            0.05514605351523       -0.41457910161225       -0.18778282231896
O           -0.32914655162827       -1.57338131227499       -0.32844094444211
C           -0.89614814490573        0.69111645981060        0.17843382381114
C           -2.35986866478008        0.28214793005653        0.19141195942365
H            1.56702682392269        1.98858177136314        0.35496783387047
H            1.99773018558170        0.74330548884443        1.54226925920242
H            3.13431999969274        1.18142190592729        0.25942873083576
H            1.54932978323632        0.28496115722220       -1.46756189956558
H            2.08964917129266       -0.97537411411936       -0.36237869031996
H           -0.71292939847679        1.52715850955786       -0.50986959201563
H           -0.58310867147897        1.06648843185690        1.16308948716154
H           -2.98832201282247        1.13598867533776        0.45883288280744
H           -2.54210325775805       -0.51462346546223        0.91802883416254
H           -2.67640974096298       -0.07984454206438       -0.79141879066016
