 xtb: 6.7.1 (edcfbbe)
          04112511403D

 22 23  0     0  0            999 V2000
   -3.2863    0.7455    0.4349 C   0  0  0  0  0  0  0  0  0  0  0  0
   -2.2569    1.5196   -0.0752 C   0  0  0  0  0  0  0  0  0  0  0  0
   -1.0902    0.9198   -0.5133 C   0  0  0  0  0  0  0  0  0  0  0  0
   -0.9391   -0.4598   -0.4414 C   0  0  0  0  0  0  0  0  0  0  0  0
   -1.9719   -1.2291    0.0749 C   0  0  0  0  0  0  0  0  0  0  0  0
   -3.1425   -0.6293    0.5076 C   0  0  0  0  0  0  0  0  0  0  0  0
    0.3445   -1.1021   -0.9136 C   0  0  0  0  0  0  0  0  0  0  0  0
    1.4925   -0.4821   -0.2998 N   0  0  0  0  0  0  0  0  0  0  0  0
    1.8322   -0.5541    1.0202 C   0  0  0  0  0  0  0  0  0  0  0  0
    2.9408    0.2277    1.1684 C   0  0  0  0  0  0  0  0  0  0  0  0
    3.2841    0.7807   -0.0272 N   0  0  0  0  0  0  0  0  0  0  0  0
    2.3935    0.3384   -0.8781 C   0  0  0  0  0  0  0  0  0  0  0  0
   -4.1969    1.2139    0.7760 H   0  0  0  0  0  0  0  0  0  0  0  0
   -2.3629    2.5923   -0.1329 H   0  0  0  0  0  0  0  0  0  0  0  0
   -0.2866    1.5256   -0.9076 H   0  0  0  0  0  0  0  0  0  0  0  0
   -1.8631   -2.3019    0.1369 H   0  0  0  0  0  0  0  0  0  0  0  0
   -3.9410   -1.2365    0.9060 H   0  0  0  0  0  0  0  0  0  0  0  0
    0.3400   -2.1682   -0.6701 H   0  0  0  0  0  0  0  0  0  0  0  0
    0.4433   -0.9890   -1.9969 H   0  0  0  0  0  0  0  0  0  0  0  0
    1.2725   -1.1367    1.7214 H   0  0  0  0  0  0  0  0  0  0  0  0
    3.5146    0.4286    2.0508 H   0  0  0  0  0  0  0  0  0  0  0  0
    2.3796    0.5844   -1.9212 H   0  0  0  0  0  0  0  0  0  0  0  0
  1  2  4  0  0  0  0
  2  3  4  0  0  0  0
  3  4  4  0  0  0  0
  4  5  4  0  0  0  0
  1  6  4  0  0  0  0
  5  6  4  0  0  0  0
  4  7  1  0  0  0  0
  7  8  1  0  0  0  0
  8  9  4  0  0  0  0
  9 10  2  0  0  0  0
 10 11  4  0  0  0  0
  8 12  4  0  0  0  0
 11 12  2  0  0  0  0
  1 13  1  0  0  0  0
  2 14  1  0  0  0  0
  3 15  1  0  0  0  0
  5 16  1  0  0  0  0
  6 17  1  0  0  0  0
  7 18  1  0  0  0  0
  7 19  1  0  0  0  0
  9 20  1  0  0  0  0
 10 21  1  0  0  0  0
 12 22  1  0  0  0  0
M  END
