 xtb: 6.7.1 (edcfbbe)
          04112512133D

 24 24  0     0  0            999 V2000
   -2.8620    0.8490   -0.4912 C   0  0  0  0  0  0  0  0  0  0  0  0
   -2.4025   -0.2217    0.4926 C   0  0  0  0  0  0  0  0  0  0  0  0
   -1.1367   -0.9673    0.0527 C   0  0  0  0  0  0  0  0  0  0  0  0
    0.1778   -0.3112    0.4781 C   0  0  0  0  0  0  0  0  0  0  0  0
    1.3918   -1.2215    0.1851 C   0  0  0  0  0  0  0  0  0  0  0  0
    2.5083   -0.3117   -0.3542 C   0  0  0  0  0  0  0  0  0  0  0  0
    2.0291    1.1121   -0.0734 C   0  0  0  0  0  0  0  0  0  0  0  0
    0.5156    1.0057   -0.2277 C   0  0  0  0  0  0  0  0  0  0  0  0
   -3.0455    0.4091   -1.4691 H   0  0  0  0  0  0  0  0  0  0  0  0
   -3.7868    1.3043   -0.1433 H   0  0  0  0  0  0  0  0  0  0  0  0
   -2.1176    1.6311   -0.6015 H   0  0  0  0  0  0  0  0  0  0  0  0
   -2.2333    0.2304    1.4721 H   0  0  0  0  0  0  0  0  0  0  0  0
   -3.2117   -0.9473    0.6047 H   0  0  0  0  0  0  0  0  0  0  0  0
   -1.1563   -1.9673    0.4939 H   0  0  0  0  0  0  0  0  0  0  0  0
   -1.1467   -1.0876   -1.0329 H   0  0  0  0  0  0  0  0  0  0  0  0
    0.1318   -0.1209    1.5558 H   0  0  0  0  0  0  0  0  0  0  0  0
    1.7070   -1.7405    1.0897 H   0  0  0  0  0  0  0  0  0  0  0  0
    1.1276   -1.9795   -0.5524 H   0  0  0  0  0  0  0  0  0  0  0  0
    3.4696   -0.5201    0.1131 H   0  0  0  0  0  0  0  0  0  0  0  0
    2.6206   -0.4533   -1.4297 H   0  0  0  0  0  0  0  0  0  0  0  0
    2.2753    1.3968    0.9511 H   0  0  0  0  0  0  0  0  0  0  0  0
    2.4720    1.8423   -0.7493 H   0  0  0  0  0  0  0  0  0  0  0  0
   -0.0018    1.8580    0.2095 H   0  0  0  0  0  0  0  0  0  0  0  0
    0.2559    0.9382   -1.2855 H   0  0  0  0  0  0  0  0  0  0  0  0
  1  2  1  0  0  0  0
  2  3  1  0  0  0  0
  3  4  1  0  0  0  0
  4  5  1  0  0  0  0
  5  6  1  0  0  0  0
  6  7  1  0  0  0  0
  4  8  1  0  0  0  0
  7  8  1  0  0  0  0
  1  9  1  0  0  0  0
  1 10  1  0  0  0  0
  1 11  1  0  0  0  0
  2 12  1  0  0  0  0
  2 13  1  0  0  0  0
  3 14  1  0  0  0  0
  3 15  1  0  0  0  0
  4 16  1  0  0  0  0
  5 17  1  0  0  0  0
  5 18  1  0  0  0  0
  6 19  1  0  0  0  0
  6 20  1  0  0  0  0
  7 21  1  0  0  0  0
  7 22  1  0  0  0  0
  8 23  1  0  0  0  0
  8 24  1  0  0  0  0
M  END
