17
 xtb: 6.7.1 (edcfbbe)
C           -2.58932724282566        0.69009337550780       -0.79671367584635
C           -2.16512004625030        0.17696192142685        0.57617215918386
C           -0.85840144858375       -0.58282786853986        0.55619082627687
O            0.19350652120824        0.35300905160178        0.15765203491116
C            1.43651120597780       -0.14739949368917        0.06080481442672
O            1.70796145746088       -1.31346437785400        0.30411870776221
C            2.42232186002380        0.87386292723880       -0.40768655419032
H           -3.56680674701905        1.17858715081667       -0.74345617035126
H           -1.87432204203466        1.41857520165269       -1.19091585699850
H           -2.66215842014542       -0.13448558574063       -1.51428249563531
H           -2.92145886138915       -0.51349952976848        0.96789314956466
H           -2.09151130612813        1.00391719234930        1.29229319777865
H           -0.60579660099609       -0.98296735560339        1.54276288594393
H           -0.88046563912163       -1.40382112916671       -0.16853115417547
H            3.40024356568287        0.66666900887543        0.02921814028183
H            2.09985977193595        1.88843432967461       -0.17119747278720
H            2.50948823471901        0.78327722084808       -1.49655404342356
