 xtb: 6.7.1 (edcfbbe)
          04112514293D

 35 35  0     0  0            999 V2000
   -0.2954   -2.6891   -0.0640 C   0  0  0  0  0  0  0  0  0  0  0  0
    0.5111   -1.4338    0.0349 C   0  0  0  0  0  0  0  0  0  0  0  0
    1.8812   -1.3773   -0.2655 C   0  0  0  0  0  0  0  0  0  0  0  0
    2.5808   -0.2633   -0.1505 N   0  0  0  0  0  0  0  0  0  0  0  0
    1.9536    0.8496    0.2621 C   0  0  0  0  0  0  0  0  0  0  0  0
    0.6340    0.9090    0.5286 N   0  0  0  0  0  0  0  0  0  0  0  0
   -0.0414   -0.2137    0.4036 C   0  0  0  0  0  0  0  0  0  0  0  0
   -1.3919   -0.1066    0.7209 O   0  0  0  0  0  0  0  0  0  0  0  0
   -2.2678   -0.1673   -0.3241 C   0  0  0  0  0  0  0  0  0  0  0  0
   -1.8986   -0.3102   -1.4807 O   0  0  0  0  0  0  0  0  0  0  0  0
   -3.5390   -0.0565    0.0639 N   0  0  0  0  0  0  0  0  0  0  0  0
   -4.6014   -0.1146   -0.9177 C   0  0  0  0  0  0  0  0  0  0  0  0
   -3.9589    0.1210    1.4372 C   0  0  0  0  0  0  0  0  0  0  0  0
    2.6762    1.9640    0.4104 N   0  0  0  0  0  0  0  0  0  0  0  0
    4.0912    1.9963    0.1295 C   0  0  0  0  0  0  0  0  0  0  0  0
    2.0874    3.2103    0.8341 C   0  0  0  0  0  0  0  0  0  0  0  0
    2.6240   -2.5853   -0.7341 C   0  0  0  0  0  0  0  0  0  0  0  0
    0.2889   -3.5470    0.2574 H   0  0  0  0  0  0  0  0  0  0  0  0
   -1.1860   -2.6138    0.5571 H   0  0  0  0  0  0  0  0  0  0  0  0
   -0.6139   -2.8478   -1.0952 H   0  0  0  0  0  0  0  0  0  0  0  0
   -5.1660    0.8178   -0.9067 H   0  0  0  0  0  0  0  0  0  0  0  0
   -5.2688   -0.9452   -0.6873 H   0  0  0  0  0  0  0  0  0  0  0  0
   -4.1589   -0.2612   -1.8999 H   0  0  0  0  0  0  0  0  0  0  0  0
   -3.0903    0.2459    2.0757 H   0  0  0  0  0  0  0  0  0  0  0  0
   -4.5291   -0.7507    1.7620 H   0  0  0  0  0  0  0  0  0  0  0  0
   -4.5908    1.0065    1.5060 H   0  0  0  0  0  0  0  0  0  0  0  0
    4.4113    1.0045   -0.1729 H   0  0  0  0  0  0  0  0  0  0  0  0
    4.6358    2.3045    1.0232 H   0  0  0  0  0  0  0  0  0  0  0  0
    4.2932    2.7086   -0.6722 H   0  0  0  0  0  0  0  0  0  0  0  0
    2.5702    3.5527    1.7509 H   0  0  0  0  0  0  0  0  0  0  0  0
    1.0281    3.0565    1.0130 H   0  0  0  0  0  0  0  0  0  0  0  0
    2.2218    3.9665    0.0585 H   0  0  0  0  0  0  0  0  0  0  0  0
    3.6411   -2.3052   -0.9871 H   0  0  0  0  0  0  0  0  0  0  0  0
    2.6432   -3.3385    0.0510 H   0  0  0  0  0  0  0  0  0  0  0  0
    2.1301   -3.0110   -1.6042 H   0  0  0  0  0  0  0  0  0  0  0  0
  1  2  1  0  0  0  0
  2  3  4  0  0  0  0
  3  4  4  0  0  0  0
  4  5  4  0  0  0  0
  5  6  4  0  0  0  0
  2  7  4  0  0  0  0
  6  7  4  0  0  0  0
  7  8  1  0  0  0  0
  8  9  1  0  0  0  0
  9 10  2  0  0  0  0
  9 11  4  0  0  0  0
 11 12  1  0  0  0  0
 11 13  1  0  0  0  0
  5 14  4  0  0  0  0
 14 15  1  0  0  0  0
 14 16  1  0  0  0  0
  3 17  1  0  0  0  0
  1 18  1  0  0  0  0
  1 19  1  0  0  0  0
  1 20  1  0  0  0  0
 12 21  1  0  0  0  0
 12 22  1  0  0  0  0
 12 23  1  0  0  0  0
 13 24  1  0  0  0  0
 13 25  1  0  0  0  0
 13 26  1  0  0  0  0
 15 27  1  0  0  0  0
 15 28  1  0  0  0  0
 15 29  1  0  0  0  0
 16 30  1  0  0  0  0
 16 31  1  0  0  0  0
 16 32  1  0  0  0  0
 17 33  1  0  0  0  0
 17 34  1  0  0  0  0
 17 35  1  0  0  0  0
M  END
