  7
 
 C         -0.7150000000        0.3700000000       -0.7410000000
 C         -0.6480000000        1.8280000000       -0.8450000000
 C         -0.5940000000        3.0240000000       -0.9300000000
 H          0.2430000000       -0.0840000000       -1.0130000000
 H         -0.9580000000        0.0640000000        0.2810000000
 H         -1.4830000000       -0.0330000000       -1.4070000000
 H         -0.5460000000        4.0850000000       -1.0060000000
