23
 xtb: 6.7.1 (edcfbbe)
C            1.98887832759459        1.44796555356313       -0.47304962710625
C            1.62355791944983        0.21038272955277        0.34307638114520
C            0.42024821690337       -0.58436136862680       -0.18908494247737
H            0.68778379038298       -0.93660258743613       -1.19763462607720
C            0.19521910953645       -1.81903239589128        0.68769021333981
C           -0.85039822215944        0.28044081670794       -0.36257771199264
C           -1.98803638264360       -0.50646796859646       -1.01816670307143
C           -1.33169462269099        0.92343238725336        0.93952187821261
H            1.22637889431614        2.23035192135944       -0.40022877533435
H            2.93319997075127        1.87877635394794       -0.12365287318813
H            2.11012199472465        1.19754870394439       -1.53384867904242
H            1.43754859436505        0.49755204400539        1.38697815619994
H            2.48620829314825       -0.46844407020259        0.36741273738783
H            1.11086974975391       -2.41857327450480        0.73948437974800
H           -0.07013670230347       -1.53801136301820        1.71339510624496
H           -0.59832320274532       -2.46418952457329        0.29832815154105
H           -0.58488156185001        1.09116939243121       -1.05414372564096
H           -2.39948897828513       -1.26137452238412       -0.33873612296449
H           -1.64713221448681       -1.01821720979484       -1.92592532462008
H           -2.80856919157971        0.16401546106020       -1.29797984415878
H           -2.20636702527030        1.55534100698465        0.75023279837842
H           -0.56272090818899        1.55283710769079        1.39895453377720
H           -1.62823966149853        0.16403267938689        1.67171157084896
