14
 xtb: 6.7.1 (edcfbbe)
C           -1.06982635865372       -0.60487048123858       -0.06772087482068
C            0.01938040079715        0.23721116263224        0.58063114158345
C            1.34018461706147       -0.50534113032815        0.68104546156963
O            1.86198204071723       -0.90205958665235       -0.59702562475321
O            0.26701273328996        1.44029719279601       -0.17444850590346
O           -2.32540713282393        0.09669197941431       -0.11790525060697
H           -1.23447544569428       -1.50099431764605        0.53980060889161
H           -0.76805825058472       -0.91391059971603       -1.07554382359951
H           -0.29491246958731        0.49868910998138        1.60288886179442
H            1.19426217530202       -1.42348912606132        1.25742908172064
H            2.06723988846352        0.12381378788623        1.21195179612086
H            2.03949968128347       -0.09380535991490       -1.09569372310666
H           -0.52999024142536        1.98395878344764       -0.12908117452717
H           -2.30094334302951        0.68602552628412       -0.88227716415905
