 xtb: 6.7.1 (edcfbbe)
          04112511173D

 35 35  0     0  0            999 V2000
   -0.3589   -2.6795   -0.1443 C   0  0  0  0  0  0  0  0  0  0  0  0
    0.4705   -1.4405   -0.0316 C   0  0  0  0  0  0  0  0  0  0  0  0
    1.8406   -1.4050   -0.3356 C   0  0  0  0  0  0  0  0  0  0  0  0
    2.5606   -0.3053   -0.2085 N   0  0  0  0  0  0  0  0  0  0  0  0
    1.9549    0.8133    0.2203 C   0  0  0  0  0  0  0  0  0  0  0  0
    0.6374    0.8932    0.4917 N   0  0  0  0  0  0  0  0  0  0  0  0
   -0.0586   -0.2154    0.3544 C   0  0  0  0  0  0  0  0  0  0  0  0
   -1.4062   -0.0879    0.6767 O   0  0  0  0  0  0  0  0  0  0  0  0
   -2.2849   -0.1169   -0.3672 C   0  0  0  0  0  0  0  0  0  0  0  0
   -1.9206   -0.2507   -1.5264 O   0  0  0  0  0  0  0  0  0  0  0  0
   -3.5531    0.0128    0.0247 N   0  0  0  0  0  0  0  0  0  0  0  0
   -4.6178   -0.0084   -0.9560 C   0  0  0  0  0  0  0  0  0  0  0  0
   -3.9675    0.1799    1.4010 C   0  0  0  0  0  0  0  0  0  0  0  0
    2.6983    1.9122    0.3810 N   0  0  0  0  0  0  0  0  0  0  0  0
    4.1125    1.9228    0.0946 C   0  0  0  0  0  0  0  0  0  0  0  0
    2.1331    3.1643    0.8198 C   0  0  0  0  0  0  0  0  0  0  0  0
    2.5598   -2.6200   -0.8223 C   0  0  0  0  0  0  0  0  0  0  0  0
    0.2102   -3.5518    0.1653 H   0  0  0  0  0  0  0  0  0  0  0  0
   -1.2469   -2.5957    0.4793 H   0  0  0  0  0  0  0  0  0  0  0  0
   -0.6821   -2.8196   -1.1768 H   0  0  0  0  0  0  0  0  0  0  0  0
   -5.3029   -0.8273   -0.7361 H   0  0  0  0  0  0  0  0  0  0  0  0
   -4.1797   -0.1511   -1.9408 H   0  0  0  0  0  0  0  0  0  0  0  0
   -5.1618    0.9359   -0.9313 H   0  0  0  0  0  0  0  0  0  0  0  0
   -4.5763    1.0803    1.4843 H   0  0  0  0  0  0  0  0  0  0  0  0
   -3.0956    0.2724    2.0404 H   0  0  0  0  0  0  0  0  0  0  0  0
   -4.5599   -0.6817    1.7125 H   0  0  0  0  0  0  0  0  0  0  0  0
    4.3238    2.6393   -0.7010 H   0  0  0  0  0  0  0  0  0  0  0  0
    4.4141    0.9286   -0.2186 H   0  0  0  0  0  0  0  0  0  0  0  0
    4.6657    2.2128    0.9892 H   0  0  0  0  0  0  0  0  0  0  0  0
    1.0719    3.0273    1.0010 H   0  0  0  0  0  0  0  0  0  0  0  0
    2.2782    3.9262    0.0517 H   0  0  0  0  0  0  0  0  0  0  0  0
    2.6251    3.4884    1.7383 H   0  0  0  0  0  0  0  0  0  0  0  0
    2.5679   -3.3835   -0.0470 H   0  0  0  0  0  0  0  0  0  0  0  0
    2.0555   -3.0255   -1.6961 H   0  0  0  0  0  0  0  0  0  0  0  0
    3.5810   -2.3551   -1.0751 H   0  0  0  0  0  0  0  0  0  0  0  0
  1  2  1  0  0  0  0
  2  3  4  0  0  0  0
  3  4  4  0  0  0  0
  4  5  4  0  0  0  0
  5  6  4  0  0  0  0
  2  7  4  0  0  0  0
  6  7  4  0  0  0  0
  7  8  1  0  0  0  0
  8  9  1  0  0  0  0
  9 10  2  0  0  0  0
  9 11  4  0  0  0  0
 11 12  1  0  0  0  0
 11 13  1  0  0  0  0
  5 14  4  0  0  0  0
 14 15  1  0  0  0  0
 14 16  1  0  0  0  0
  3 17  1  0  0  0  0
  1 18  1  0  0  0  0
  1 19  1  0  0  0  0
  1 20  1  0  0  0  0
 12 21  1  0  0  0  0
 12 22  1  0  0  0  0
 12 23  1  0  0  0  0
 13 24  1  0  0  0  0
 13 25  1  0  0  0  0
 13 26  1  0  0  0  0
 15 27  1  0  0  0  0
 15 28  1  0  0  0  0
 15 29  1  0  0  0  0
 16 30  1  0  0  0  0
 16 31  1  0  0  0  0
 16 32  1  0  0  0  0
 17 33  1  0  0  0  0
 17 34  1  0  0  0  0
 17 35  1  0  0  0  0
M  END
