24
 xtb: 6.7.1 (edcfbbe)
C           -2.16076140769492        0.03804401780341       -1.21132407869022
C           -2.24087332581440        0.25993402206056        0.29762097657165
C           -1.22457221299062       -0.51378865287754        1.14895843645063
C            0.27617338221007       -0.31544039990781        0.86282511942125
C            0.86353164211727       -1.18118814286704       -0.27068249613275
C            2.17129746380707       -0.46755650756675       -0.61724916484132
C            1.75788614971339        1.01001091512561       -0.61883637326077
C            0.73786265793276        1.13513227377975        0.53792692991068
H           -1.23006646589791        0.43117609236138       -1.63185353109008
H           -2.21743993638710       -1.02777931097525       -1.46055397761684
H           -2.98985011002623        0.54377267376756       -1.71844724308813
H           -2.15590178527269        1.33331107451813        0.50696798387383
H           -3.24120368749378       -0.02991165948359        0.64393810701346
H           -1.41569572140802       -0.24665787131377        2.19639161458356
H           -1.44192206468049       -1.58839867902090        1.06965279120041
H            0.80375637000016       -0.62597788697144        1.77438489478825
H            1.00490662021765       -2.22078494165077        0.04457379402225
H            0.20387191489889       -1.18637667674166       -1.14457352734253
H            2.91219927755342       -0.65035392726001        0.17202436384589
H            2.60738463637770       -0.79100227077194       -1.56799368735043
H            2.60675956590641        1.69265800796472       -0.51221250038520
H            1.27015371829888        1.24356075544703       -1.57278557660675
H            1.19695660866195        1.59379502966226        1.41972488330805
H           -0.09961728166865        1.77645119089389        0.25027324789001
