 22

C     -1.437000    -1.582000     0.269000
C     -2.727000    -1.905000     0.689000
C     -3.580000    -0.910000     1.163000
C     -3.149000     0.415000     1.220000
C     -1.858000     0.740000     0.800000
C     -1.004000    -0.257000     0.326000
Cl     0.605000     0.088000    -0.207000
Cl    -1.375000     2.398000     0.894000
O     -4.856000    -1.183000     1.585000
C     -5.239000    -2.498000     1.512000
C     -6.529000    -2.821000     1.932000
C     -6.962000    -4.146000     1.875000
C     -6.107000    -5.143000     1.401000
C     -4.817000    -4.818000     0.982000
C     -4.386000    -3.494000     1.038000
O     -3.109000    -3.220000     0.616000
Cl    -6.590000    -6.801000     1.309000
Cl    -8.570000    -4.491000     2.408000
H     -0.779000    -2.367000    -0.097000
H     -3.822000     1.184000     1.592000
H     -7.186000    -2.038000     2.301000
H     -4.144000    -5.588000     0.610000
