23
 xtb: 6.7.1 (edcfbbe)
C            2.21055724666650        0.99069348436168        0.85859062894636
C            1.44381159207523       -0.31146348142271        0.63131568897644
C            0.34008575771559       -0.21106996628645       -0.45199580074640
H            0.49158883319388        0.72974624938901       -1.00479131353775
C            0.47297332121450       -1.36568622239423       -1.44958220073275
C           -1.07284641909947       -0.14574829887892        0.16955877098973
C           -1.21903451115210        1.04134987571664        1.12579544233552
C           -2.17546622294292       -0.07415388076900       -0.89053648016164
H            2.95824667539943        0.87982561307404        1.65166492566848
H            2.73572185237524        1.29220576389769       -0.05486268061849
H            1.54182455789248        1.81044845007627        1.13968518268519
H            1.00152210385491       -0.65119662571110        1.57677018276215
H            2.16216405777818       -1.08780537502293        0.34140358054121
H           -0.20780978798635       -1.26349807890771       -2.29911565469093
H            1.49227398583198       -1.40952476914713       -1.84799563550124
H            0.26433826250035       -2.32544942650680       -0.95981427080578
H           -1.21210004610706       -1.07164452055978        0.74925526058129
H           -0.49126048141734        1.00986669551768        1.94129155699177
H           -2.21855110014688        1.05261127175971        1.57383749437690
H           -1.08421789048168        1.98718823504852        0.58637847630581
H           -3.15465922164008        0.04896382833386       -0.41518379456668
H           -2.22203195498756       -0.97479732819535       -1.50835487406636
H           -2.01644164762589        0.78565731148841       -1.55350545407482
