  34
 
 C         -2.6920000000        0.8270000000        2.4840000000
 C         -3.1570000000        2.2530000000        2.3970000000
 C         -3.8620000000        2.8950000000        3.3480000000
 C         -4.3550000000        4.3160000000        3.3220000000
 C         -3.3160000000        5.2690000000        3.9220000000
 C         -3.7270000000        6.7610000000        3.9420000000
 C         -5.0040000000        6.9710000000        4.7640000000
 C         -3.7700000000        7.3310000000        2.5390000000
 C         -4.8230000000        7.8660000000        1.9080000000
 O         -2.6940000000        7.4710000000        4.6470000000
 C         -2.8900000000        8.8120000000        4.7640000000
 O         -3.8400000000        9.4520000000        4.3340000000
 C         -1.7420000000        9.4150000000        5.5160000000
 C         -2.7590000000        2.9640000000        1.1310000000
 H         -3.4530000000        0.1580000000        2.0670000000
 H         -2.5240000000        0.5490000000        3.5290000000
 H         -1.7700000000        0.6370000000        1.9310000000
 H         -4.1050000000        2.3540000000        4.2620000000
 H         -4.5480000000        4.5780000000        2.2750000000
 H         -5.3150000000        4.4120000000        3.8350000000
 H         -2.3680000000        5.1690000000        3.3740000000
 H         -3.0780000000        4.9490000000        4.9470000000
 H         -5.2880000000        8.0300000000        4.7730000000
 H         -5.8520000000        6.3950000000        4.3820000000
 H         -4.8450000000        6.6930000000        5.8140000000
 H         -2.8310000000        7.2990000000        1.9860000000
 H         -4.7630000000        8.2520000000        0.8980000000
 H         -5.7840000000        7.9250000000        2.4090000000
 H         -0.9570000000        9.7140000000        4.8180000000
 H         -1.3580000000        8.6970000000        6.2440000000
 H         -2.0880000000       10.3030000000        6.0530000000
 H         -3.5300000000        2.8310000000        0.3650000000
 H         -2.6230000000        4.0400000000        1.2820000000
 H         -1.8160000000        2.5600000000        0.7500000000
