 xtb: 6.7.1 (edcfbbe)
          04112511493D

 17 16  0     0  0            999 V2000
   -2.2042    0.8559    0.7518 C   0  0  0  0  0  0  0  0  0  0  0  0
   -1.8007    0.4075   -0.6476 C   0  0  0  0  0  0  0  0  0  0  0  0
   -0.9100   -0.8413   -0.6103 C   0  0  0  0  0  0  0  0  0  0  0  0
    0.4063   -0.5505    0.0631 C   0  0  0  0  0  0  0  0  0  0  0  0
    0.7825   -1.0573    1.1002 O   0  0  0  0  0  0  0  0  0  0  0  0
    1.1142    0.3381   -0.6227 O   0  0  0  0  0  0  0  0  0  0  0  0
    2.3911    0.7482   -0.1258 C   0  0  0  0  0  0  0  0  0  0  0  0
   -2.7625    0.0714    1.2573 H   0  0  0  0  0  0  0  0  0  0  0  0
   -1.3252    1.0829    1.3523 H   0  0  0  0  0  0  0  0  0  0  0  0
   -2.8263    1.7455    0.7009 H   0  0  0  0  0  0  0  0  0  0  0  0
   -1.2628    1.2100   -1.1542 H   0  0  0  0  0  0  0  0  0  0  0  0
   -2.6953    0.1767   -1.2269 H   0  0  0  0  0  0  0  0  0  0  0  0
   -0.7007   -1.1665   -1.6297 H   0  0  0  0  0  0  0  0  0  0  0  0
   -1.4012   -1.6453   -0.0626 H   0  0  0  0  0  0  0  0  0  0  0  0
    2.3484    1.8196    0.0620 H   0  0  0  0  0  0  0  0  0  0  0  0
    3.1293    0.5282   -0.8945 H   0  0  0  0  0  0  0  0  0  0  0  0
    2.6222    0.2082    0.7931 H   0  0  0  0  0  0  0  0  0  0  0  0
  1  2  1  0  0  0  0
  2  3  1  0  0  0  0
  3  4  1  0  0  0  0
  4  5  2  0  0  0  0
  4  6  1  0  0  0  0
  6  7  1  0  0  0  0
  1  8  1  0  0  0  0
  1  9  1  0  0  0  0
  1 10  1  0  0  0  0
  2 11  1  0  0  0  0
  2 12  1  0  0  0  0
  3 13  1  0  0  0  0
  3 14  1  0  0  0  0
  7 15  1  0  0  0  0
  7 16  1  0  0  0  0
  7 17  1  0  0  0  0
M  END
