 xtb: 6.7.1 (edcfbbe)
          04112512153D

 21 20  0     0  0            999 V2000
    2.5523   -0.2221    0.7267 C   0  0  0  0  0  0  0  0  0  0  0  0
    1.1360   -0.6513    0.3542 C   0  0  0  0  0  0  0  0  0  0  0  0
    0.2428    0.5347   -0.0307 C   0  0  0  0  0  0  0  0  0  0  0  0
    0.3972    1.3433    0.7051 H   0  0  0  0  0  0  0  0  0  0  0  0
   -1.2630    0.2059   -0.0499 C   0  0  0  0  0  0  0  0  0  0  0  0
   -1.5709   -1.0176   -0.9102 C   0  0  0  0  0  0  0  0  0  0  0  0
   -1.8307    0.0425    1.3571 C   0  0  0  0  0  0  0  0  0  0  0  0
    0.5595    1.0303   -1.3237 O   0  0  0  0  0  0  0  0  0  0  0  0
    3.1329   -1.0866    1.0383 H   0  0  0  0  0  0  0  0  0  0  0  0
    2.5304    0.4911    1.5482 H   0  0  0  0  0  0  0  0  0  0  0  0
    3.0637    0.2371   -0.1163 H   0  0  0  0  0  0  0  0  0  0  0  0
    1.1725   -1.3470   -0.4851 H   0  0  0  0  0  0  0  0  0  0  0  0
    0.6878   -1.1628    1.2055 H   0  0  0  0  0  0  0  0  0  0  0  0
   -1.7394    1.0750   -0.5184 H   0  0  0  0  0  0  0  0  0  0  0  0
   -2.6449   -1.1114   -1.0499 H   0  0  0  0  0  0  0  0  0  0  0  0
   -1.1029   -0.9099   -1.8853 H   0  0  0  0  0  0  0  0  0  0  0  0
   -1.2055   -1.9259   -0.4384 H   0  0  0  0  0  0  0  0  0  0  0  0
   -1.6133    0.9173    1.9654 H   0  0  0  0  0  0  0  0  0  0  0  0
   -1.4125   -0.8331    1.8473 H   0  0  0  0  0  0  0  0  0  0  0  0
   -2.9091   -0.0815    1.3050 H   0  0  0  0  0  0  0  0  0  0  0  0
    1.5017    1.2408   -1.3563 H   0  0  0  0  0  0  0  0  0  0  0  0
  1  2  1  0  0  0  0
  2  3  1  0  0  0  0
  3  4  1  0  0  0  0
  3  5  1  0  0  0  0
  5  6  1  0  0  0  0
  5  7  1  0  0  0  0
  3  8  1  0  0  0  0
  1  9  1  0  0  0  0
  1 10  1  0  0  0  0
  1 11  1  0  0  0  0
  2 12  1  0  0  0  0
  2 13  1  0  0  0  0
  5 14  1  0  0  0  0
  6 15  1  0  0  0  0
  6 16  1  0  0  0  0
  6 17  1  0  0  0  0
  7 18  1  0  0  0  0
  7 19  1  0  0  0  0
  7 20  1  0  0  0  0
  8 21  1  0  0  0  0
M  END
