 xtb: 6.7.1 (edcfbbe)
          04112512193D

 17 16  0     0  0            999 V2000
   -2.1689    0.9383   -0.8534 C   0  0  0  0  0  0  0  0  0  0  0  0
   -1.8953    0.0268    0.3425 C   0  0  0  0  0  0  0  0  0  0  0  0
   -0.4562   -0.4214    0.3865 C   0  0  0  0  0  0  0  0  0  0  0  0
   -0.0995   -1.5805    0.4505 O   0  0  0  0  0  0  0  0  0  0  0  0
    0.3830    0.6049    0.3684 O   0  0  0  0  0  0  0  0  0  0  0  0
    1.7942    0.3365    0.3886 C   0  0  0  0  0  0  0  0  0  0  0  0
    2.3275    0.0874   -1.0140 C   0  0  0  0  0  0  0  0  0  0  0  0
   -1.5310    1.8163   -0.8099 H   0  0  0  0  0  0  0  0  0  0  0  0
   -1.9765    0.4114   -1.7848 H   0  0  0  0  0  0  0  0  0  0  0  0
   -3.2075    1.2550   -0.8421 H   0  0  0  0  0  0  0  0  0  0  0  0
   -2.5223   -0.8640    0.3082 H   0  0  0  0  0  0  0  0  0  0  0  0
   -2.0989    0.5689    1.2675 H   0  0  0  0  0  0  0  0  0  0  0  0
    2.2365    1.2306    0.8287 H   0  0  0  0  0  0  0  0  0  0  0  0
    1.9752   -0.5327    1.0283 H   0  0  0  0  0  0  0  0  0  0  0  0
    2.1009    0.9332   -1.6574 H   0  0  0  0  0  0  0  0  0  0  0  0
    3.4027   -0.0522   -0.9703 H   0  0  0  0  0  0  0  0  0  0  0  0
    1.8723   -0.8081   -1.4314 H   0  0  0  0  0  0  0  0  0  0  0  0
  1  2  1  0  0  0  0
  2  3  1  0  0  0  0
  3  4  2  0  0  0  0
  3  5  1  0  0  0  0
  5  6  1  0  0  0  0
  6  7  1  0  0  0  0
  1  8  1  0  0  0  0
  1  9  1  0  0  0  0
  1 10  1  0  0  0  0
  2 11  1  0  0  0  0
  2 12  1  0  0  0  0
  6 13  1  0  0  0  0
  6 14  1  0  0  0  0
  7 15  1  0  0  0  0
  7 16  1  0  0  0  0
  7 17  1  0  0  0  0
M  END
