 xtb: 6.7.1 (edcfbbe)
          04112511323D

 21 20  0     0  0            999 V2000
   -2.1947    1.0649    0.3858 C   0  0  0  0  0  0  0  0  0  0  0  0
   -1.8363   -0.3614   -0.0129 C   0  0  0  0  0  0  0  0  0  0  0  0
   -0.5455   -0.4973   -0.8269 C   0  0  0  0  0  0  0  0  0  0  0  0
    0.7753   -0.1523   -0.0892 C   0  0  0  0  0  0  0  0  0  0  0  0
    1.1352    1.3293   -0.2337 C   0  0  0  0  0  0  0  0  0  0  0  0
    1.9114   -0.9923   -0.6916 C   0  0  0  0  0  0  0  0  0  0  0  0
    0.6780   -0.4084    1.3078 O   0  0  0  0  0  0  0  0  0  0  0  0
   -2.1659    1.7261   -0.4774 H   0  0  0  0  0  0  0  0  0  0  0  0
   -1.5056    1.4337    1.1405 H   0  0  0  0  0  0  0  0  0  0  0  0
   -3.1981    1.0913    0.8055 H   0  0  0  0  0  0  0  0  0  0  0  0
   -1.7630   -0.9683    0.8911 H   0  0  0  0  0  0  0  0  0  0  0  0
   -2.6468   -0.7715   -0.6208 H   0  0  0  0  0  0  0  0  0  0  0  0
   -0.4866   -1.5353   -1.1648 H   0  0  0  0  0  0  0  0  0  0  0  0
   -0.6132    0.1326   -1.7147 H   0  0  0  0  0  0  0  0  0  0  0  0
    2.0520    1.5297    0.3155 H   0  0  0  0  0  0  0  0  0  0  0  0
    0.3521    1.9587    0.1729 H   0  0  0  0  0  0  0  0  0  0  0  0
    1.2856    1.5767   -1.2800 H   0  0  0  0  0  0  0  0  0  0  0  0
    2.8519   -0.7491   -0.2026 H   0  0  0  0  0  0  0  0  0  0  0  0
    2.0045   -0.7867   -1.7541 H   0  0  0  0  0  0  0  0  0  0  0  0
    1.7162   -2.0551   -0.5602 H   0  0  0  0  0  0  0  0  0  0  0  0
    0.6237   -1.3630    1.4459 H   0  0  0  0  0  0  0  0  0  0  0  0
  1  2  1  0  0  0  0
  2  3  1  0  0  0  0
  3  4  1  0  0  0  0
  4  5  1  0  0  0  0
  4  6  1  0  0  0  0
  4  7  1  0  0  0  0
  1  8  1  0  0  0  0
  1  9  1  0  0  0  0
  1 10  1  0  0  0  0
  2 11  1  0  0  0  0
  2 12  1  0  0  0  0
  3 13  1  0  0  0  0
  3 14  1  0  0  0  0
  5 15  1  0  0  0  0
  5 16  1  0  0  0  0
  5 17  1  0  0  0  0
  6 18  1  0  0  0  0
  6 19  1  0  0  0  0
  6 20  1  0  0  0  0
  7 21  1  0  0  0  0
M  END
