 xtb: 6.7.1 (edcfbbe)
          04112511503D

 26 26  0     0  0            999 V2000
    4.1951   -0.1267   -0.1172 C   0  0  0  0  0  0  0  0  0  0  0  0
    2.7712   -0.3554   -0.2356 N   0  0  0  0  0  0  0  0  0  0  0  0
    2.4098   -1.5832   -0.9059 C   0  0  0  0  0  0  0  0  0  0  0  0
    1.9032    0.5660    0.2059 C   0  0  0  0  0  0  0  0  0  0  0  0
    2.2743    1.6522    0.6679 O   0  0  0  0  0  0  0  0  0  0  0  0
    0.4476    0.2427    0.1401 C   0  0  0  0  0  0  0  0  0  0  0  0
   -0.4131    1.1222   -0.5019 C   0  0  0  0  0  0  0  0  0  0  0  0
   -1.7783    0.8974   -0.5253 C   0  0  0  0  0  0  0  0  0  0  0  0
   -2.3069   -0.2123    0.1266 C   0  0  0  0  0  0  0  0  0  0  0  0
   -1.4462   -1.0845    0.7981 C   0  0  0  0  0  0  0  0  0  0  0  0
   -0.0872   -0.8609    0.8031 C   0  0  0  0  0  0  0  0  0  0  0  0
   -3.6278   -0.5317    0.1756 O   0  0  0  0  0  0  0  0  0  0  0  0
   -4.5597    0.3155   -0.4718 C   0  0  0  0  0  0  0  0  0  0  0  0
    4.6488   -0.0410   -1.1057 H   0  0  0  0  0  0  0  0  0  0  0  0
    4.6566   -0.9549    0.4209 H   0  0  0  0  0  0  0  0  0  0  0  0
    4.3500    0.8000    0.4316 H   0  0  0  0  0  0  0  0  0  0  0  0
    1.3559   -1.5805   -1.1670 H   0  0  0  0  0  0  0  0  0  0  0  0
    2.6222   -2.4418   -0.2659 H   0  0  0  0  0  0  0  0  0  0  0  0
    3.0028   -1.6740   -1.8169 H   0  0  0  0  0  0  0  0  0  0  0  0
   -0.0032    1.9926   -0.9922 H   0  0  0  0  0  0  0  0  0  0  0  0
   -2.4148    1.5952   -1.0439 H   0  0  0  0  0  0  0  0  0  0  0  0
   -1.8747   -1.9303    1.3111 H   0  0  0  0  0  0  0  0  0  0  0  0
    0.5629   -1.5350    1.3386 H   0  0  0  0  0  0  0  0  0  0  0  0
   -5.5308   -0.1401   -0.2932 H   0  0  0  0  0  0  0  0  0  0  0  0
   -4.3677    0.3643   -1.5465 H   0  0  0  0  0  0  0  0  0  0  0  0
   -4.5410    1.3213   -0.0448 H   0  0  0  0  0  0  0  0  0  0  0  0
  1  2  1  0  0  0  0
  2  3  1  0  0  0  0
  2  4  4  0  0  0  0
  4  5  2  0  0  0  0
  4  6  1  0  0  0  0
  6  7  4  0  0  0  0
  7  8  4  0  0  0  0
  8  9  4  0  0  0  0
  9 10  4  0  0  0  0
  6 11  4  0  0  0  0
 10 11  4  0  0  0  0
  9 12  1  0  0  0  0
 12 13  1  0  0  0  0
  1 14  1  0  0  0  0
  1 15  1  0  0  0  0
  1 16  1  0  0  0  0
  3 17  1  0  0  0  0
  3 18  1  0  0  0  0
  3 19  1  0  0  0  0
  7 20  1  0  0  0  0
  8 21  1  0  0  0  0
 10 22  1  0  0  0  0
 11 23  1  0  0  0  0
 13 24  1  0  0  0  0
 13 25  1  0  0  0  0
 13 26  1  0  0  0  0
M  END
