 xtb: 6.7.1 (edcfbbe)
          04112511303D

 22 21  0     0  0            999 V2000
    1.5464    0.3662    1.5868 C   0  0  0  0  0  0  0  0  0  0  0  0
    1.4006   -0.2689    0.2091 C   0  0  0  0  0  0  0  0  0  0  0  0
    2.3523    0.4025   -0.7912 C   0  0  0  0  0  0  0  0  0  0  0  0
    0.0078   -0.2654   -0.4040 C   0  0  0  0  0  0  0  0  0  0  0  0
   -0.1691   -0.7945   -1.4856 O   0  0  0  0  0  0  0  0  0  0  0  0
   -1.1470    0.3572    0.3550 C   0  0  0  0  0  0  0  0  0  0  0  0
   -1.8081   -0.7683    1.1634 C   0  0  0  0  0  0  0  0  0  0  0  0
   -2.1527    0.9780   -0.6127 C   0  0  0  0  0  0  0  0  0  0  0  0
    0.8787   -0.0886    2.3124 H   0  0  0  0  0  0  0  0  0  0  0  0
    1.3551    1.4355    1.5463 H   0  0  0  0  0  0  0  0  0  0  0  0
    2.5674    0.2237    1.9330 H   0  0  0  0  0  0  0  0  0  0  0  0
    1.6818   -1.3275    0.2725 H   0  0  0  0  0  0  0  0  0  0  0  0
    2.2423   -0.0498   -1.7739 H   0  0  0  0  0  0  0  0  0  0  0  0
    2.1248    1.4634   -0.8706 H   0  0  0  0  0  0  0  0  0  0  0  0
    3.3816    0.2894   -0.4633 H   0  0  0  0  0  0  0  0  0  0  0  0
   -0.7799    1.1226    1.0385 H   0  0  0  0  0  0  0  0  0  0  0  0
   -2.1781   -1.5375    0.4888 H   0  0  0  0  0  0  0  0  0  0  0  0
   -1.1028   -1.2253    1.8525 H   0  0  0  0  0  0  0  0  0  0  0  0
   -2.6441   -0.3691    1.7311 H   0  0  0  0  0  0  0  0  0  0  0  0
   -3.0216    1.3400   -0.0705 H   0  0  0  0  0  0  0  0  0  0  0  0
   -1.7007    1.8094   -1.1489 H   0  0  0  0  0  0  0  0  0  0  0  0
   -2.4731    0.2377   -1.3423 H   0  0  0  0  0  0  0  0  0  0  0  0
  1  2  1  0  0  0  0
  2  3  1  0  0  0  0
  2  4  1  0  0  0  0
  4  5  2  0  0  0  0
  4  6  1  0  0  0  0
  6  7  1  0  0  0  0
  6  8  1  0  0  0  0
  1  9  1  0  0  0  0
  1 10  1  0  0  0  0
  1 11  1  0  0  0  0
  2 12  1  0  0  0  0
  3 13  1  0  0  0  0
  3 14  1  0  0  0  0
  3 15  1  0  0  0  0
  6 16  1  0  0  0  0
  7 17  1  0  0  0  0
  7 18  1  0  0  0  0
  7 19  1  0  0  0  0
  8 20  1  0  0  0  0
  8 21  1  0  0  0  0
  8 22  1  0  0  0  0
M  END
