  27
 
 C          2.8614322616        0.0015109588       -0.8685167676
 C          2.5023085177       -1.1281974157        0.0947168936
 H          2.6146933995       -2.1462998990       -0.2651428418
 C          1.0973561290       -0.7737066565        0.6257206809
 H          1.0039072208       -1.1975645621        1.6292703544
 C          1.0968453164        0.7770815626        0.6235392962
 H          1.0010375962        1.2037582279        1.6256638073
 C          2.5022713901        1.1314486531        0.0941924324
 H          2.6149172526        2.1494625469       -0.2658724990
 C          3.3801389782        0.7366838084        1.2933195555
 H          3.3983869729        1.3439328801        2.1874443183
 C          3.3806692072       -0.7329504903        1.2933550076
 H          3.3994135915       -1.3401701033        2.1874805152
 O          4.5284706669        0.0022371795        1.0023172605
 C         -0.2321190851        1.1174236105       -0.1073988693
 C         -1.2638819085        0.6733653843        0.9355077989
 C         -1.2636587069       -0.6673413648        0.9395496934
 C         -0.2326578945       -1.1174463844       -0.1014211192
 C         -0.5101915680       -0.0028896187       -1.1395955103
 Cl        -2.2471106989       -0.0030387793       -1.6234070063
 Cl         0.3159363823       -0.0091697255       -2.6811169102
 Cl        -0.3807666969       -2.7641016894       -0.6671086930
 Cl        -2.1083881522       -1.7377104287        1.9354217945
 Cl        -2.1087627849        1.7495618647        1.9248756519
 Cl        -0.3790577346        2.7609014216       -0.6823800627
 H          2.3150568886        0.0018584997       -1.7947579468
 H          3.9285638738        0.0013005638       -1.0855641156
          27
        -61.12620309
 C          2.8564087462        0.0006468230       -0.8170698259
 C          2.4791586242       -1.1297423421        0.1384590642
 H          2.5982376527       -2.1477288141       -0.2196583120
 C          1.0643088996       -0.7755912110        0.6427511931
 H          0.9505617744       -1.2013345336        1.6434324908
 C          1.0642002193        0.7751268856        0.6434733304
 H          0.9502508010        1.2000735865        1.6444977372
 C          2.4790758398        1.1299545015        0.1397036722
 H          2.5981121940        2.1483422917       -0.2172810861
 C          3.3345703448        0.7344075420        1.3547845322
 H          3.3369547678        1.3416743458        2.2489849443
 C          3.3346174102       -0.7353522666        1.3539868280
 H          3.3370196362       -1.3435663356        2.2475931266
 O          4.4879221384       -0.0002724774        1.0845426687
 C         -0.2510021761        1.1173606187       -0.1109397435
 C         -1.3021388236        0.6699873064        0.9110560201
 C         -1.3020212426       -0.6707144614        0.9107344988
 C         -0.2509563967       -1.1174257905       -0.1117006506
 C         -0.5094054794        0.0003047774       -1.1517716215
 Cl        -2.2365918771        0.0008376598       -1.6677510788
 Cl         0.3438388250        0.0008593327       -2.6786657153
 Cl        -0.3871892420       -2.7625065740       -0.6853364757
 Cl        -2.1651808589       -1.7449816922        1.8861907375
 Cl        -2.1655503042        1.7436089678        1.8870182476
 Cl        -0.3871329109        2.7626711950       -0.6835471347
 H          2.3276953489        0.0012138540       -1.7532513533
 H          3.9273719529        0.0008193117       -1.0141117626
