 27

C      2.507000    -0.056000    -0.407000
C      1.959000    -0.754000     0.842000
H      2.245000    -1.799000     0.971000
C      0.428000    -0.469000     0.837000
H      0.117000    -0.415000     1.893000
C      0.356000     0.971000     0.187000
H      0.010000     1.700000     0.938000
C      1.857000     1.291000    -0.076000
H      2.051000     2.102000    -0.779000
C      2.448000     1.546000     1.328000
H      2.074000     2.385000     1.891000
C      2.517000     0.173000     1.944000
H      2.195000     0.005000     2.958000
O      3.696000     0.934000     1.667000
C     -0.789000     0.801000    -0.870000
C     -2.021000     0.655000     0.033000
C     -1.961000    -0.567000     0.588000
C     -0.691000    -1.242000     0.057000
C     -0.777000    -0.668000    -1.389000
Cl    -2.324000    -1.146000    -2.279000
Cl     0.446000    -1.147000    -2.570000
Cl    -0.616000    -2.980000     0.186000
Cl    -3.013000    -1.259000     1.719000
Cl    -3.165000     1.874000     0.297000
Cl    -0.858000     2.044000    -2.092000
H      2.248000    -0.489000    -1.349000
H      3.604000    -0.008000    -0.420000
