  27
 
 C          2.5070000000       -0.0560000000       -0.4070000000
 C          1.9590000000       -0.7540000000        0.8420000000
 H          2.2450000000       -1.7990000000        0.9710000000
 C          0.4280000000       -0.4690000000        0.8370000000
 H          0.1170000000       -0.4150000000        1.8930000000
 C          0.3560000000        0.9710000000        0.1870000000
 H          0.0100000000        1.7000000000        0.9380000000
 C          1.8570000000        1.2910000000       -0.0760000000
 H          2.0510000000        2.1020000000       -0.7790000000
 C          2.4480000000        1.5460000000        1.3280000000
 H          2.0740000000        2.3850000000        1.8910000000
 C          2.5170000000        0.1730000000        1.9440000000
 H          2.1950000000        0.0050000000        2.9580000000
 O          3.6960000000        0.9340000000        1.6670000000
 C         -0.7890000000        0.8010000000       -0.8700000000
 C         -2.0210000000        0.6550000000        0.0330000000
 C         -1.9610000000       -0.5670000000        0.5880000000
 C         -0.6910000000       -1.2420000000        0.0570000000
 C         -0.7770000000       -0.6680000000       -1.3890000000
 Cl        -2.3240000000       -1.1460000000       -2.2790000000
 Cl         0.4460000000       -1.1470000000       -2.5700000000
 Cl        -0.6160000000       -2.9800000000        0.1860000000
 Cl        -3.0130000000       -1.2590000000        1.7190000000
 Cl        -3.1650000000        1.8740000000        0.2970000000
 Cl        -0.8580000000        2.0440000000       -2.0920000000
 H          2.2480000000       -0.4890000000       -1.3490000000
 H          3.6040000000       -0.0080000000       -0.4200000000
