  21
 
 C         -3.0593340707        1.4984677867        0.9144164116
 O         -2.0935973712        1.5459576958       -0.1260993854
 C         -1.0738691988        0.6160628855       -0.0526299094
 C         -1.2397979974       -0.7574527374       -0.1702782643
 C         -0.1385149534       -1.5951230677       -0.1023868370
 C          1.1181758208       -1.0515926593        0.0709392364
 C          1.3374921194        0.3299542945        0.1687265053
 C          0.2133359264        1.1613309094        0.1012057691
 O          0.3049771339        2.5168374437        0.1723790411
 O          2.6275576573        0.7045393283        0.3257618594
 C          2.9692943866        2.0677651753        0.4683173279
 Cl         2.4845122260       -2.0905717759        0.1565142636
 Cl        -2.7961703873       -1.4543830831       -0.4408620830
 H         -3.7216811223        2.3433478895        0.7351956855
 H         -2.5820004522        1.6030071720        1.8938599974
 H         -3.6355390177        0.5729685623        0.8913974693
 H         -0.2580610220       -2.6619829726       -0.1897131154
 H         -0.6009503870        2.8542867348        0.0554679986
 H          4.0520270671        2.0754989826        0.5804756135
 H          2.5060196177        2.5061337265        1.3548079031
 H          2.6865518167        2.6478902327       -0.4115018166
          21
        -42.50329055
 C         -3.3407124497        1.3455395533        0.5198305570
 O         -2.1098383054        1.5802769787       -0.1391491893
 C         -1.1051331607        0.6446672564       -0.0729795000
 C         -1.2305520586       -0.7379310845       -0.0559538506
 C         -0.0967722507       -1.5356808269        0.0096679970
 C          1.1520805915       -0.9557308024        0.0340272709
 C          1.3316328766        0.4348916452       -0.0111349173
 C          0.1808233326        1.2260743366       -0.0587742174
 O          0.2483266482        2.5868661840       -0.0932273406
 O          2.6174679485        0.8534432787        0.0103642815
 C          2.9342397911        2.2265651388       -0.0801144028
 Cl         2.5519085934       -1.9504790974        0.1089868709
 Cl        -2.7566164338       -1.5522112481       -0.1526962058
 H         -3.1940819794        0.8197912710        1.4648273013
 H         -4.0295904346        0.7814774249       -0.1109105708
 H         -3.7596286180        2.3335052350        0.7140161425
 H         -0.1933679172       -2.6082994396        0.0297155196
 H         -0.6672265491        2.9090527692       -0.1186695218
 H          2.5584995910        2.6642168997       -1.0064941726
 H          4.0228487474        2.2640738398       -0.0720293128
 H          2.5413429121        2.7864103576        0.7700797023
