  21
 
 C          1.3120000000       -2.1090000000       -2.1510000000
 O          1.9130000000       -1.0100000000       -1.4760000000
 C          1.8850000000       -1.0360000000       -0.1120000000
 C          2.9210000000       -1.6310000000        0.6080000000
 C          2.8780000000       -1.6520000000        2.0020000000
 C          1.8000000000       -1.0790000000        2.6760000000
 C          0.7640000000       -0.4840000000        1.9550000000
 C          0.8070000000       -0.4630000000        0.5610000000
 O         -0.2060000000        0.1190000000       -0.1430000000
 O         -0.2980000000        0.0810000000        2.6000000000
 C         -1.4140000000       -0.7640000000        2.8700000000
 Cl         1.7740000000       -1.1190000000        4.4000000000
 Cl         4.2670000000       -2.3490000000       -0.1980000000
 H          1.4010000000       -1.9670000000       -3.2310000000
 H          0.2590000000       -2.1800000000       -1.8680000000
 H          1.8280000000       -3.0280000000       -1.8630000000
 H          3.6860000000       -2.1160000000        2.5640000000
 H         -0.0310000000        0.0530000000       -1.0950000000
 H         -2.1810000000       -0.1860000000        3.3840000000
 H         -1.0860000000       -1.5990000000        3.4880000000
 H         -1.8040000000       -1.1350000000        1.9230000000
