 xtb: 6.7.1 (edcfbbe)
          04112512083D

 17 16  0     0  0            999 V2000
   -2.6694    1.0705   -0.1094 C   0  0  0  0  0  0  0  0  0  0  0  0
   -2.1654   -0.2245    0.5169 C   0  0  0  0  0  0  0  0  0  0  0  0
   -0.8808   -0.7080   -0.1408 C   0  0  0  0  0  0  0  0  0  0  0  0
    0.1640    0.2315    0.1516 O   0  0  0  0  0  0  0  0  0  0  0  0
    1.4150   -0.1320   -0.0981 C   0  0  0  0  0  0  0  0  0  0  0  0
    1.7113   -1.2126   -0.5673 O   0  0  0  0  0  0  0  0  0  0  0  0
    2.3895    0.9442    0.2750 C   0  0  0  0  0  0  0  0  0  0  0  0
   -2.8981    0.9205   -1.1617 H   0  0  0  0  0  0  0  0  0  0  0  0
   -3.5695    1.4078    0.3963 H   0  0  0  0  0  0  0  0  0  0  0  0
   -1.9116    1.8447   -0.0264 H   0  0  0  0  0  0  0  0  0  0  0  0
   -2.9140   -1.0095    0.4101 H   0  0  0  0  0  0  0  0  0  0  0  0
   -1.9749   -0.0706    1.5795 H   0  0  0  0  0  0  0  0  0  0  0  0
   -0.5781   -1.6916    0.2339 H   0  0  0  0  0  0  0  0  0  0  0  0
   -0.9907   -0.7746   -1.2284 H   0  0  0  0  0  0  0  0  0  0  0  0
    3.3964    0.6262    0.0266 H   0  0  0  0  0  0  0  0  0  0  0  0
    2.3095    1.1418    1.3407 H   0  0  0  0  0  0  0  0  0  0  0  0
    2.1373    1.8570   -0.2573 H   0  0  0  0  0  0  0  0  0  0  0  0
  1  2  1  0  0  0  0
  2  3  1  0  0  0  0
  3  4  1  0  0  0  0
  4  5  1  0  0  0  0
  5  6  2  0  0  0  0
  5  7  1  0  0  0  0
  1  8  1  0  0  0  0
  1  9  1  0  0  0  0
  1 10  1  0  0  0  0
  2 11  1  0  0  0  0
  2 12  1  0  0  0  0
  3 13  1  0  0  0  0
  3 14  1  0  0  0  0
  7 15  1  0  0  0  0
  7 16  1  0  0  0  0
  7 17  1  0  0  0  0
M  END
