  12
 
 C         -1.3035255366       -1.4954117032       -0.0004354840
 C          0.0531779914       -1.7607897389       -0.0003296175
 C          0.9729220564       -0.7220578106       -0.0005950208
 C          0.5247659601        0.5981605363       -0.0008970364
 C         -0.8343559854        0.8714938296       -0.0009736089
 C         -1.7397228965       -0.1783535263       -0.0007550860
 Cl        -3.4268082056        0.1652684673       -0.0009949150
 Cl         1.6492942952        1.8982956435       -0.0010996596
 Cl         2.6580779150       -1.0673995900       -0.0002304448
 H         -2.0180254454       -2.3025631896       -0.0001844452
 H          0.4089749274       -2.7788148303        0.0001549254
 H         -1.1772507228        1.8935660605       -0.0013000990
          12
        -28.02917269
 C         -1.3167614373       -1.4847054942        0.0001722284
 C          0.0379073439       -1.7600081421        0.0000955810
 C          0.9651216676       -0.7279286095       -0.0000457162
 C          0.5266803537        0.5950140925       -0.0000205181
 C         -0.8303922697        0.8781625022        0.0002534930
 C         -1.7435836202       -0.1646941592        0.0002974333
 Cl        -3.4282227950        0.1911969415       -0.0001748017
 Cl         1.6604163047        1.8872452138        0.0000000350
 Cl         2.6477778415       -1.0858728215       -0.0000940134
 H         -2.0363361660       -2.2871830607       -0.0000187907
 H          0.3852666857       -2.7807573738        0.0001475344
 H         -1.1659931885        1.9026094373        0.0003581772
