 xtb: 6.7.1 (edcfbbe)
          04082510373D

 16 15  0     0  0            999 V2000
   -2.7393   -0.3352    0.0041 C   0  0  0  0  0  0  0  0  0  0  0  0
   -1.3280   -0.0277    0.4882 C   0  0  0  0  0  0  0  0  0  0  0  0
   -0.3067   -0.1621   -0.6527 C   0  0  0  0  0  0  0  0  0  0  0  0
    1.0666    0.1828   -0.1340 C   0  0  0  0  0  0  0  0  0  0  0  0
    1.4801    1.3268   -0.1202 O   0  0  0  0  0  0  0  0  0  0  0  0
    1.8675   -0.9728    0.3844 C   0  0  0  0  0  0  0  0  0  0  0  0
   -3.4464   -0.2369    0.8235 H   0  0  0  0  0  0  0  0  0  0  0  0
   -2.7971   -1.3496   -0.3826 H   0  0  0  0  0  0  0  0  0  0  0  0
   -3.0305    0.3522   -0.7862 H   0  0  0  0  0  0  0  0  0  0  0  0
   -1.0633   -0.7117    1.2967 H   0  0  0  0  0  0  0  0  0  0  0  0
   -1.2843    0.9896    0.8831 H   0  0  0  0  0  0  0  0  0  0  0  0
   -0.3238   -1.1801   -1.0390 H   0  0  0  0  0  0  0  0  0  0  0  0
   -0.5740    0.5384   -1.4453 H   0  0  0  0  0  0  0  0  0  0  0  0
    1.2519   -1.5967    1.0261 H   0  0  0  0  0  0  0  0  0  0  0  0
    2.7432   -0.6208    0.9224 H   0  0  0  0  0  0  0  0  0  0  0  0
    2.1876   -1.5764   -0.4628 H   0  0  0  0  0  0  0  0  0  0  0  0
  1  2  1  0  0  0  0
  2  3  1  0  0  0  0
  3  4  1  0  0  0  0
  4  5  2  0  0  0  0
  4  6  1  0  0  0  0
  1  7  1  0  0  0  0
  1  8  1  0  0  0  0
  1  9  1  0  0  0  0
  2 10  1  0  0  0  0
  2 11  1  0  0  0  0
  3 12  1  0  0  0  0
  3 13  1  0  0  0  0
  6 14  1  0  0  0  0
  6 15  1  0  0  0  0
  6 16  1  0  0  0  0
M  END
