 xtb: 6.7.1 (edcfbbe)
          04072506013D

 15 14  0     0  0            999 V2000
    2.6385   -0.8150   -0.0310 C   0  0  0  0  0  0  0  0  0  0  0  0
    1.9796    0.5374   -0.2800 C   0  0  0  0  0  0  0  0  0  0  0  0
    0.5694    0.6362    0.3052 C   0  0  0  0  0  0  0  0  0  0  0  0
   -0.4165   -0.2824   -0.3981 C   0  0  0  0  0  0  0  0  0  0  0  0
   -2.1393    0.0046    0.1542 S   0  0  0  0  0  0  0  0  0  0  0  0
    2.6478   -1.0437    1.0322 H   0  0  0  0  0  0  0  0  0  0  0  0
    3.6656   -0.8017   -0.3870 H   0  0  0  0  0  0  0  0  0  0  0  0
    2.1114   -1.6099   -0.5520 H   0  0  0  0  0  0  0  0  0  0  0  0
    1.9391    0.7316   -1.3540 H   0  0  0  0  0  0  0  0  0  0  0  0
    2.5915    1.3187    0.1750 H   0  0  0  0  0  0  0  0  0  0  0  0
    0.2144    1.6651    0.2099 H   0  0  0  0  0  0  0  0  0  0  0  0
    0.6002    0.3903    1.3692 H   0  0  0  0  0  0  0  0  0  0  0  0
   -0.4387   -0.0857   -1.4701 H   0  0  0  0  0  0  0  0  0  0  0  0
   -0.1944   -1.3346   -0.2309 H   0  0  0  0  0  0  0  0  0  0  0  0
   -1.9436   -0.3239    1.4252 H   0  0  0  0  0  0  0  0  0  0  0  0
  1  2  1  0  0  0  0
  2  3  1  0  0  0  0
  3  4  1  0  0  0  0
  4  5  1  0  0  0  0
  1  6  1  0  0  0  0
  1  7  1  0  0  0  0
  1  8  1  0  0  0  0
  2  9  1  0  0  0  0
  2 10  1  0  0  0  0
  3 11  1  0  0  0  0
  3 12  1  0  0  0  0
  4 13  1  0  0  0  0
  4 14  1  0  0  0  0
  5 15  1  0  0  0  0
M  END
