 xtb: 6.7.1 (edcfbbe)
          04072505513D

 15 14  0     0  0            999 V2000
    3.0725   -0.4652    0.1790 C   0  0  0  0  0  0  0  0  0  0  0  0
    1.8930    0.2924   -0.4185 C   0  0  0  0  0  0  0  0  0  0  0  0
    0.5637   -0.2057    0.1456 C   0  0  0  0  0  0  0  0  0  0  0  0
   -0.6106    0.5521   -0.4496 C   0  0  0  0  0  0  0  0  0  0  0  0
   -2.1817   -0.0948    0.2576 S   0  0  0  0  0  0  0  0  0  0  0  0
    4.0085   -0.0988   -0.2345 H   0  0  0  0  0  0  0  0  0  0  0  0
    2.9920   -1.5278   -0.0382 H   0  0  0  0  0  0  0  0  0  0  0  0
    3.0991   -0.3381    1.2588 H   0  0  0  0  0  0  0  0  0  0  0  0
    1.8923    0.1687   -1.5036 H   0  0  0  0  0  0  0  0  0  0  0  0
    1.9981    1.3581   -0.2044 H   0  0  0  0  0  0  0  0  0  0  0  0
    0.5557   -0.0848    1.2319 H   0  0  0  0  0  0  0  0  0  0  0  0
    0.4488   -1.2714   -0.0686 H   0  0  0  0  0  0  0  0  0  0  0  0
   -0.5548    1.6130   -0.2083 H   0  0  0  0  0  0  0  0  0  0  0  0
   -0.6570    0.4159   -1.5295 H   0  0  0  0  0  0  0  0  0  0  0  0
   -2.9865    0.7117   -0.4222 H   0  0  0  0  0  0  0  0  0  0  0  0
  1  2  1  0  0  0  0
  2  3  1  0  0  0  0
  3  4  1  0  0  0  0
  4  5  1  0  0  0  0
  1  6  1  0  0  0  0
  1  7  1  0  0  0  0
  1  8  1  0  0  0  0
  2  9  1  0  0  0  0
  2 10  1  0  0  0  0
  3 11  1  0  0  0  0
  3 12  1  0  0  0  0
  4 13  1  0  0  0  0
  4 14  1  0  0  0  0
  5 15  1  0  0  0  0
M  END
