 12

C      1.763000    -2.744000     1.219000
C      1.110000    -1.785000     0.268000
C      0.469000    -0.687000     0.696000
C      1.214000    -2.125000    -1.189000
H      1.054000    -3.521000     1.522000
H      2.623000    -3.225000     0.742000
H      2.120000    -2.247000     2.127000
H     -0.000000    -0.000000     0.000000
H      0.399000    -0.450000     1.752000
H      0.366000    -2.745000    -1.497000
H      1.214000    -1.211000    -1.793000
H      2.132000    -2.676000    -1.420000
