 xtb: 6.7.1 (edcfbbe)
          04112511573D

 14 13  0     0  0            999 V2000
    2.2282   -0.2452   -0.1522 C   0  0  0  0  0  0  0  0  0  0  0  0
    0.9081   -0.2482    0.3424 O   0  0  0  0  0  0  0  0  0  0  0  0
    0.0738    0.7020   -0.2966 C   0  0  0  0  0  0  0  0  0  0  0  0
   -1.3339    0.5648    0.2726 C   0  0  0  0  0  0  0  0  0  0  0  0
   -1.9314   -0.6801   -0.1906 N   0  0  0  0  0  0  0  0  0  0  0  0
    2.7662   -1.0058    0.4080 H   0  0  0  0  0  0  0  0  0  0  0  0
    2.7000    0.7319    0.0003 H   0  0  0  0  0  0  0  0  0  0  0  0
    2.2456   -0.4874   -1.2205 H   0  0  0  0  0  0  0  0  0  0  0  0
    0.4595    1.7158   -0.1170 H   0  0  0  0  0  0  0  0  0  0  0  0
    0.0542    0.5147   -1.3785 H   0  0  0  0  0  0  0  0  0  0  0  0
   -1.2614    0.6326    1.3700 H   0  0  0  0  0  0  0  0  0  0  0  0
   -1.9466    1.3936   -0.0897 H   0  0  0  0  0  0  0  0  0  0  0  0
   -2.8149   -0.8322    0.2827 H   0  0  0  0  0  0  0  0  0  0  0  0
   -1.3129   -1.4455    0.0593 H   0  0  0  0  0  0  0  0  0  0  0  0
  1  2  1  0  0  0  0
  2  3  1  0  0  0  0
  3  4  1  0  0  0  0
  4  5  1  0  0  0  0
  1  6  1  0  0  0  0
  1  7  1  0  0  0  0
  1  8  1  0  0  0  0
  3  9  1  0  0  0  0
  3 10  1  0  0  0  0
  4 11  1  0  0  0  0
  4 12  1  0  0  0  0
  5 13  1  0  0  0  0
  5 14  1  0  0  0  0
M  END
