  17
 
 C         -2.5586178394        0.9933961519       -0.0009271207
 C         -1.2373856327        0.2909562699        0.0148498010
 C         -1.1581647725       -1.0982766788        0.0057231553
 C          0.0922353708       -1.6910767431        0.0031628788
 N          1.2247469170       -1.0108337876        0.0092557141
 C          1.1667982643        0.3150665962        0.0156396546
 C         -0.0441317842        1.0003558368        0.0191905007
 C          2.4758129667        1.0414197957        0.0025341497
 H         -2.8736038351        1.1595335704       -1.0318552409
 H         -3.3215238267        0.3948985200        0.4917545497
 H         -2.4903026110        1.9610902971        0.4908398426
 H         -2.0536019656       -1.7014300552        0.0049734956
 H          0.1979819113       -2.7686014995        0.0003678680
 H         -0.0528316039        2.0811339746        0.0281527253
 H          2.7774187623        1.2317499604       -1.0274236449
 H          2.4001294731        1.9941627825        0.5204417607
 H          3.2398452193        0.4257630656        0.4687676559
          17
        -22.49516500
 C         -2.5638832334        0.9673309561       -0.0002877813
 C         -1.2339106508        0.2811733396        0.0003475953
 C         -1.1499608979       -1.1097948467       -0.0002173707
 C          0.1002641507       -1.6988236301       -0.0002675565
 N          1.2324137441       -1.0145927808        0.0002469698
 C          1.1694263393        0.3090075845        0.0005439962
 C         -0.0443827350        0.9928318049        0.0006242381
 C          2.4716786551        1.0480525270       -0.0004787235
 H         -3.1449409032        0.6628382103        0.8693123574
 H         -2.4463654165        2.0479141073        0.0173432567
 H         -3.1286611535        0.6906729378       -0.8898508973
 H         -2.0449113406       -1.7135658085       -0.0000206280
 H          0.2104023142       -2.7758962730        0.0003122747
 H         -0.0518625982        2.0735012351        0.0009779780
 H          2.5551934328        1.6649091199       -0.8939637181
 H          2.5378916934        1.7008956797        0.8683063146
 H          3.2917333109        0.3367715932        0.0210001558
