  22
 
 C         -3.5245145849        0.0003212129        0.0007012669
 C         -2.8284550802       -1.1211365551        0.4195983832
 C         -1.4460227409       -1.1225706564        0.4179801833
 C         -0.7354094676        0.0003092304        0.0000683309
 C         -1.4462524292        1.1231932947       -0.4174550631
 C         -2.8286853543        1.1218011831       -0.4183899470
 C          0.7354358503        0.0002119061       -0.0001462005
 C          1.4459986177       -1.1226830636       -0.4182278838
 C          2.8284310412       -1.1215893625       -0.4191292603
 C          3.5245536082       -0.0004262609        0.0003917348
 C          2.8287875818        1.1211280775        0.4195148442
 C          1.4463548691        1.1228747715        0.4179956605
 H         -4.6046023232        0.0003530724        0.0011627345
 H         -3.3659343443       -1.9980043973        0.7510120462
 H         -0.9090969981       -1.9944075887        0.7631038029
 H         -0.9095170883        1.9950604326       -0.7628440417
 H         -3.3663268869        1.9987379801       -0.7492294302
 H          0.9090614031       -1.9944024569       -0.7633544164
 H          3.3658541786       -1.9985479931       -0.7503083515
 H          4.6046433379       -0.0007159996        0.0006790861
 H          3.3664991371        1.9978686911        0.7507298407
 H          0.9096943272        1.9948812500        0.7630197971
          22
        -30.76675955
 C         -3.5238002298       -0.0000604792       -0.0007464559
 C         -2.8282472161        1.1151549565        0.4351976046
 C         -1.4457944202        1.1170822507        0.4336168328
 C         -0.7355169928       -0.0001027436        0.0007217526
 C         -1.4453352883       -1.1173324043       -0.4327575950
 C         -2.8278100071       -1.1153633776       -0.4359519719
 C          0.7355235732        0.0000699601        0.0007038128
 C          1.4458041357       -1.1171243095        0.4336165643
 C          2.8282750220       -1.1151039409        0.4352979637
 C          3.5238098139        0.0000516586       -0.0008691642
 C          2.8277799401        1.1153755161       -0.4359907680
 C          1.4453178171        1.1173431104       -0.4326179231
 H         -4.6039048648        0.0000272666       -0.0013372754
 H         -3.3661094157        1.9867236347        0.7795809420
 H         -0.9081489021        1.9840031871        0.7898894322
 H         -0.9072749283       -1.9842178004       -0.7885542763
 H         -3.3652955970       -1.9868792130       -0.7810178879
 H          0.9081526422       -1.9840199356        0.7899126337
 H          3.3661420663       -1.9866585478        0.7796602474
 H          4.6039048422       -0.0000241563       -0.0013297266
 H          3.3652355783        1.9868909332       -0.7810869232
 H          0.9072253170        1.9842714481       -0.7883466522
