22
CONF5
C -3.2384776318 0.9645746916 -0.1319504125
C -2.4200623928 1.0626739879 0.9930546648
C -1.2837691918 0.2676282589 1.1012804514
C -0.9492573771 -0.6291838918 0.0825265165
C -1.7717323258 -0.7227157528 -1.0405268940
C -2.9139499776 0.0688007037 -1.1468393576
C 0.3011705136 -1.4685499800 0.1845267617
N 1.5152849689 -0.6495736021 0.0879979429
C 2.2242883593 -0.1058371380 1.1361811552
C 3.1594812584 0.7159045197 0.5634817362
N 3.0350054734 0.7033361353 -0.8127159693
C 2.0266449226 -0.1201580163 -1.0553569990
H -4.1263738801 1.5834676499 -0.2148425340
H -2.6717467057 1.7565052179 1.7891368933
H -0.6496937630 0.3436668561 1.9805872033
H -1.5164430224 -1.4183913893 -1.8349908157
H -3.5480648448 -0.0141434758 -2.0240814149
H 0.3413672863 -1.9976016342 1.1405598907
H 0.3272650829 -2.2100000091 -0.6180604483
H 2.0097544815 -0.3631362456 2.1624661188
H 3.9172604911 1.3042890063 1.0613092959
H 1.6336920388 -0.3770054806 -2.0303710429
22
CONF7
C -3.3591999378 0.5025820399 0.5124724519
C -3.2642362717 0.2542927252 -0.8567588611
C -2.0270748435 -0.0100957245 -1.4335738640
C -0.8677055961 -0.0285357322 -0.6514472490
C -0.9665943882 0.2204173381 0.7169354878
C -2.2086276107 0.4832817933 1.2949812803
C 0.4515816685 -0.3097426935 -1.3384964882
N 1.5896013664 -0.3217331958 -0.4331224439
C 1.9906323558 -1.3790924478 0.3547473446
C 2.9575112813 -0.8760557552 1.1847574787
N 3.1462222131 0.4720293126 0.9453257465
C 2.2934553221 0.7678879846 -0.0228199058
H -4.3242620047 0.7093418218 0.9641893633
H -4.1559917976 0.2679799455 -1.4765385307
H -1.9556178941 -0.2027677352 -2.5011714280
H -0.0776821854 0.2102504769 1.3413070148
H -2.2724363918 0.6745423948 2.3619447235
H 0.4098943972 -1.2781692427 -1.8478956349
H 0.6385567905 0.4491903702 -2.1057507129
H 1.5647585669 -2.3651510299 0.2411252083
H 3.5300283001 -1.4067107105 1.9325944529
H 2.1515349040 1.7417782204 -0.4733348347
22
CONF2
C -3.2688856120 0.8844379403 0.2677538802
C -3.0270237709 -0.3103109451 0.9394625173
C -1.8668144165 -1.0369273469 0.6762926716
C -0.9442119631 -0.5766827782 -0.2625342285
C -1.1928802886 0.6230436286 -0.9351503914
C -2.3482417435 1.3503974711 -0.6708676603
C 0.3187398149 -1.3548395375 -0.5413916043
N 1.5148795022 -0.5966653735 -0.1663761349
C 1.8906595758 -0.2641382282 1.1167558328
C 2.9711145551 0.5669902129 0.9809127344
N 3.2614492324 0.7688940960 -0.3549105129
C 2.3548437994 0.0599982955 -1.0099331497
H -4.1708585128 1.4522807497 0.4729501446
H -3.7391760552 -0.6772347462 1.6719687936
H -1.6752252626 -1.9672800148 1.2036857494
H -0.4747052535 0.9874667970 -1.6655021878
H -2.5341683250 2.2801673684 -1.1994465771
H 0.3133183693 -2.2981983251 0.0111778042
H 0.4073491833 -1.5840784114 -1.6074617708
H 1.3677962018 -0.6483187670 1.9800231520
H 3.5565648261 1.0248819294 1.7656768439
H 2.2672629469 -0.0264528159 -2.0849253404
22
CONF8
C -3.3336241430 0.8413569054 0.1487771008
C -2.1151759825 1.5125208415 0.1730391507
C -0.9188350364 0.8069597147 0.0451299971
C -0.9329725779 -0.5784532302 -0.1099468452
C -2.1598140959 -1.2487596093 -0.1337040986
C -3.3518988084 -0.5446328224 -0.0045457423
C 0.3326538352 -1.3966129199 -0.2529947687
N 1.5497661898 -0.6096658719 -0.1264828859
C 2.1584545476 0.1168329883 -1.1269009704
C 3.1241766519 0.8647532349 -0.5064807131
N 3.1114670994 0.6354773850 0.8563846212
C 2.1400690202 -0.2434756514 1.0436237743
H -4.2634071953 1.3920281298 0.2501344323
H -2.0899179915 2.5912868041 0.2924926809
H 0.0237405016 1.3458899573 0.0670180452
H -2.1772685649 -2.3292829909 -0.2505335940
H -4.2970643684 -1.0785347554 -0.0214252018
H 0.3562186054 -2.1803147668 0.5113019181
H 0.3497128276 -1.8957742831 -1.2273963878
H 1.8571994061 0.0245570743 -2.1598708167
H 3.8283972344 1.5468041585 -0.9615687220
H 1.8298696376 -0.6593387081 1.9934739446
22
CONF3
C -3.2216268890 0.9805848314 -0.0002083425
C -2.8036476875 0.4175169996 1.2026088428
C -1.6704769624 -0.3927611831 1.2374817863
C -0.9491548792 -0.6465622839 0.0708142434
C -1.3735072131 -0.0794592293 -1.1333654104
C -2.5040901520 0.7304091463 -1.1693237566
C 0.3012493301 -1.4900401262 0.1100389139
N 1.5078626955 -0.6600121458 0.0353942278
C 1.9888537620 0.1593100263 1.0324427776
C 3.0196290988 0.8626869374 0.4665986087
N 3.1767365543 0.5074689169 -0.8592462746
C 2.2390070584 -0.4008614505 -1.0810026202
H -4.1049338455 1.6109029555 -0.0285847123
H -3.3595786050 0.6084141208 2.1151366972
H -1.3431361013 -0.8321134712 2.1755993032
H -0.8132342348 -0.2747133675 -2.0440829068
H -2.8292421856 1.1636396808 -2.1100265825
H 0.3404682206 -2.0756681472 1.0322223513
H 0.3328637273 -2.1793294639 -0.7380179043
H 1.5672732629 0.1551173027 2.0265633520
H 3.6599077510 1.5944100737 0.9388193865
H 2.0558160932 -0.9121389378 -2.0167295973
22
CONF1
C -3.2978409869 0.7584473430 0.4247700042
C -2.2457619543 1.5330469652 -0.0638112416
C -1.0695411947 0.9249666802 -0.4893473277
C -0.9312226904 -0.4643142336 -0.4291058808
C -1.9839277500 -1.2339834794 0.0649589134
C -3.1647903743 -0.6256069236 0.4875866709
C 0.3406037889 -1.1277154396 -0.9034443364
N 1.5289467943 -0.5265483842 -0.3005988153
C 1.8722771295 -0.5772824757 1.0328254978
C 2.9461875381 0.2619729229 1.1697008819
N 3.2644741303 0.8423964371 -0.0435005073
C 2.3784801112 0.3524682555 -0.8962436748
H -4.2151733709 1.2339851070 0.7573285115
H -2.3439854704 2.6130085641 -0.1147138398
H -0.2503140877 1.5315229012 -0.8676889780
H -1.8771694185 -2.3136964146 0.1217867086
H -3.9771257375 -1.2343185308 0.8724689042
H 0.3208470423 -2.1950031913 -0.6663955771
H 0.4466817731 -1.0269119100 -1.9885138871
H 1.3373368521 -1.1981718856 1.7359427552
H 3.5103961752 0.4744676045 2.0668952011
H 2.3110189119 0.5850399597 -1.9509608383
22
CONF6
C -3.2483138240 -0.0327973190 -0.9116230181
C -2.7405598049 1.2476437212 -0.7080531094
C -1.5797522344 1.4270605724 0.0417026917
C -0.9216790190 0.3295809277 0.5979978516
C -1.4392243820 -0.9526292925 0.3951573420
C -2.5949776114 -1.1334686981 -0.3581048066
C 0.3555761777 0.5210718018 1.3786060023
N 1.5286452937 0.0854881902 0.6123691596
C 2.0850966033 -1.1746149889 0.6108742688
C 3.0357603907 -1.1576194211 -0.3764048400
N 3.0673214881 0.0776873649 -0.9947273317
C 2.1374459426 0.7910025433 -0.3778220139
H -4.1516713332 -0.1738453071 -1.4966608369
H -3.2470069704 2.1085582841 -1.1335012095
H -1.1814727394 2.4258490986 0.1978290180
H -0.9330179296 -1.8108358566 0.8290629987
H -2.9900160151 -2.1332606569 -0.5100425516
H 0.4919403169 1.5748912861 1.6337121032
H 0.3386139869 -0.0571857375 2.3061158102
H 1.7709376257 -1.9375876013 1.3074643773
H 3.7016713511 -1.9576090841 -0.6684367881
H 1.8717213212 1.8171483534 -0.5973355895
22
CONF4
C -3.2864565766 0.9244102813 -0.1136864729
C -2.2979170401 1.2458581073 0.8161982587
C -1.1360093404 0.4851287093 0.8930137255
C -0.9473817107 -0.6039994686 0.0376535688
C -1.9377616661 -0.9188834171 -0.8928074491
C -3.1043969163 -0.1599882691 -0.9668589379
C 0.3064118613 -1.4419086116 0.1215415288
N 1.5226011518 -0.6277530818 0.0694427328
C 2.3055307655 -0.2464571933 1.1367205487
C 3.2297309973 0.6261885199 0.6249843968
N 3.0256559910 0.8047377016 -0.7299499057
C 1.9832429711 0.0421725256 -1.0205285133
H -4.1925011126 1.5190913913 -0.1732327749
H -2.4352085840 2.0900887354 1.4847069984
H -0.3684460613 0.7395104794 1.6192125336
H -1.7926309128 -1.7596015616 -1.5653343046
H -3.8666822539 -0.4135125532 -1.6969943200
H 0.3355315964 -2.0033810847 1.0601981774
H 0.3325212051 -2.1626356809 -0.7002713315
H 2.1380859211 -0.6338032900 2.1305545420
H 4.0290019602 1.1280413253 1.1515833956
H 1.5287280791 -0.0716705791 -1.9959814549
