 xtb: 6.7.1 (edcfbbe)
          04112511413D

 15 14  0     0  0            999 V2000
   -2.5482    0.3188   -0.6183 C   0  0  0  0  0  0  0  0  0  0  0  0
   -1.8429   -0.4113    0.5196 C   0  0  0  0  0  0  0  0  0  0  0  0
   -0.4008    0.0500    0.7302 C   0  0  0  0  0  0  0  0  0  0  0  0
    0.5017   -0.3054   -0.4609 C   0  0  0  0  0  0  0  0  0  0  0  0
    1.8673    0.0365   -0.1881 C   0  0  0  0  0  0  0  0  0  0  0  0
    2.9544    0.3140    0.0462 N   0  0  0  0  0  0  0  0  0  0  0  0
   -2.4944    1.3953   -0.4714 H   0  0  0  0  0  0  0  0  0  0  0  0
   -2.1036    0.0771   -1.5802 H   0  0  0  0  0  0  0  0  0  0  0  0
   -3.5960    0.0313   -0.6530 H   0  0  0  0  0  0  0  0  0  0  0  0
   -2.3922   -0.2351    1.4466 H   0  0  0  0  0  0  0  0  0  0  0  0
   -1.8564   -1.4863    0.3276 H   0  0  0  0  0  0  0  0  0  0  0  0
   -0.0013   -0.4243    1.6294 H   0  0  0  0  0  0  0  0  0  0  0  0
   -0.3809    1.1305    0.8875 H   0  0  0  0  0  0  0  0  0  0  0  0
    0.4514   -1.3781   -0.6646 H   0  0  0  0  0  0  0  0  0  0  0  0
    0.1894    0.2374   -1.3555 H   0  0  0  0  0  0  0  0  0  0  0  0
  1  2  1  0  0  0  0
  2  3  1  0  0  0  0
  3  4  1  0  0  0  0
  4  5  1  0  0  0  0
  5  6  3  0  0  0  0
  1  7  1  0  0  0  0
  1  8  1  0  0  0  0
  1  9  1  0  0  0  0
  2 10  1  0  0  0  0
  2 11  1  0  0  0  0
  3 12  1  0  0  0  0
  3 13  1  0  0  0  0
  4 14  1  0  0  0  0
  4 15  1  0  0  0  0
M  END
