  34
 
 C         -3.5910230992       -3.1762917876       -0.5622837588
 C         -3.0914636254       -2.1116716880        0.4062354165
 C         -2.2872360807       -1.0319610506       -0.3119014117
 C         -1.7791868406        0.0323120244        0.6642671650
 N         -1.0156569028        1.0628930796       -0.0011716090
 C         -1.7247232882        2.2397651694       -0.4758598573
 C         -1.8652614273        3.2937088816        0.6185025231
 C          0.3022274820        0.9836245246       -0.2354516455
 O          0.9672755089        1.8103174622       -0.8124003940
 S          1.0869414822       -0.5143640702        0.3864161047
 C          2.7966696678       -0.1239371103       -0.1153252856
 C          3.7298065110       -1.2642530827        0.2503635594
 C          5.1619602014       -0.9437448834       -0.1599611198
 H         -4.1550674895       -3.9404138036       -0.0328756470
 H         -4.2372089596       -2.7341435644       -1.3176979323
 H         -2.7535008194       -3.6539508027       -1.0653343237
 H         -3.9433576350       -1.6530708213        0.9142497959
 H         -2.4617696691       -2.5779751630        1.1664827306
 H         -1.4301109671       -1.4875812684       -0.8100891056
 H         -2.9086437458       -0.5584041634       -1.0756646650
 H         -1.1521853543       -0.4418439832        1.4243341366
 H         -2.6234710357        0.5097261266        1.1678521608
 H         -1.1551774060        2.6544648985       -1.3105867899
 H         -2.7076826605        1.9270268454       -0.8366025726
 H         -2.3977984005        4.1586754320        0.2327223377
 H         -2.4126369965        2.8991101654        1.4717649906
 H         -0.8807196488        3.6103834141        0.9527775324
 H          3.0739096047        0.8012075735        0.3907398608
 H          2.7779675688        0.0545922154       -1.1907019675
 H          3.6826442705       -1.4375504970        1.3277684423
 H          3.3963958820       -2.1772809484       -0.2478056696
 H          5.8233402110       -1.7649430121        0.1049160540
 H          5.2245628041       -0.7823957473       -1.2338670048
 H          5.5106857996       -0.0439635640        0.3420910986
          34
        -42.40285254
 C         -1.6118835448       -2.8855880243        0.2593456936
 C         -2.0686311559       -1.9178719195       -0.8254170217
 C         -2.9747053087       -0.8042100051       -0.2996652851
 C         -2.2784185030        0.1489257657        0.6780748985
 N         -1.0811667649        0.7515673731        0.1180859675
 C         -1.2496401131        1.8220700519       -0.8395212277
 C         -1.2723274422        3.1933801033       -0.1683848339
 C          0.1096003006        0.3569017468        0.5881798209
 O          0.2869022063       -0.4607445691        1.4611859650
 S          1.5248982130        1.1547056162       -0.1994189908
 C          2.8680187640        0.1867937282        0.5539921719
 C          3.4276620552       -0.8651885454       -0.3922435454
 C          2.3921388830       -1.9199630585       -0.7599329077
 H         -1.0567159869       -3.7085776820       -0.1850632121
 H         -0.9620735703       -2.3876704200        0.9732768443
 H         -2.4677592791       -3.2960740959        0.7913081393
 H         -1.1939445063       -1.4735673125       -1.3054877508
 H         -2.6181491496       -2.4702850053       -1.5917426433
 H         -3.3610274624       -0.2356088047       -1.1493405382
 H         -3.8295268003       -1.2439137072        0.2179666320
 H         -1.9792029448       -0.3937598361        1.5756038395
 H         -2.9716321234        0.9451875923        0.9669027978
 H         -0.4329164869        1.7833542446       -1.5650496324
 H         -2.1882829112        1.6505279726       -1.3700333337
 H         -1.4254386940        3.9671388169       -0.9152024128
 H         -2.0754656543        3.2502393490        0.5627831998
 H         -0.3274205771        3.3777917379        0.3350104844
 H          2.4285168079       -0.2723268439        1.4415647095
 H          3.6343781600        0.9056756268        0.8429559593
 H          3.7974863570       -0.3790469957       -1.2983519182
 H          4.2768182953       -1.3414640570        0.1050736616
 H          2.8413660117       -2.6980852685       -1.3723718482
 H          1.9779013313       -2.3747255105        0.1370215300
 H          1.5758627525       -1.4713342463       -1.3228215973
