 34

C     -2.702000     2.586000    -1.320000
C     -3.096000     2.544000     0.148000
C     -1.993000     3.121000     1.039000
C     -2.361000     3.092000     2.519000
N     -1.323000     3.634000     3.352000
C     -1.279000     5.064000     3.692000
C     -2.040000     5.310000     4.936000
C     -0.293000     2.813000     3.884000
O      0.622000     3.211000     4.601000
S     -0.373000     1.103000     3.424000
C      1.071000     0.448000     4.287000
C      1.220000    -1.052000     4.038000
C      2.434000    -1.618000     4.760000
H     -3.496000     2.172000    -1.950000
H     -2.521000     3.618000    -1.635000
H     -1.787000     2.011000    -1.497000
H     -4.022000     3.114000     0.288000
H     -3.307000     1.507000     0.430000
H     -1.062000     2.564000     0.877000
H     -1.803000     4.161000     0.747000
H     -2.565000     2.072000     2.858000
H     -3.257000     3.696000     2.693000
H     -0.229000     5.314000     3.803000
H     -1.701000     5.588000     2.842000
H     -2.024000     6.370000     5.213000
H     -3.080000     4.978000     4.842000
H     -1.575000     4.741000     5.750000
H      0.963000     0.646000     5.362000
H      1.965000     0.982000     3.940000
H      0.325000    -1.584000     4.383000
H      1.325000    -1.249000     2.964000
H      2.534000    -2.692000     4.577000
H      3.347000    -1.127000     4.409000
H      2.357000    -1.459000     5.840000
