  34
 
 C         -2.7020000000        2.5860000000       -1.3200000000
 C         -3.0960000000        2.5440000000        0.1480000000
 C         -1.9930000000        3.1210000000        1.0390000000
 C         -2.3610000000        3.0920000000        2.5190000000
 N         -1.3230000000        3.6340000000        3.3520000000
 C         -1.2790000000        5.0640000000        3.6920000000
 C         -2.0400000000        5.3100000000        4.9360000000
 C         -0.2930000000        2.8130000000        3.8840000000
 O          0.6220000000        3.2110000000        4.6010000000
 S         -0.3730000000        1.1030000000        3.4240000000
 C          1.0710000000        0.4480000000        4.2870000000
 C          1.2200000000       -1.0520000000        4.0380000000
 C          2.4340000000       -1.6180000000        4.7600000000
 H         -3.4960000000        2.1720000000       -1.9500000000
 H         -2.5210000000        3.6180000000       -1.6350000000
 H         -1.7870000000        2.0110000000       -1.4970000000
 H         -4.0220000000        3.1140000000        0.2880000000
 H         -3.3070000000        1.5070000000        0.4300000000
 H         -1.0620000000        2.5640000000        0.8770000000
 H         -1.8030000000        4.1610000000        0.7470000000
 H         -2.5650000000        2.0720000000        2.8580000000
 H         -3.2570000000        3.6960000000        2.6930000000
 H         -0.2290000000        5.3140000000        3.8030000000
 H         -1.7010000000        5.5880000000        2.8420000000
 H         -2.0240000000        6.3700000000        5.2130000000
 H         -3.0800000000        4.9780000000        4.8420000000
 H         -1.5750000000        4.7410000000        5.7500000000
 H          0.9630000000        0.6460000000        5.3620000000
 H          1.9650000000        0.9820000000        3.9400000000
 H          0.3250000000       -1.5840000000        4.3830000000
 H          1.3250000000       -1.2490000000        2.9640000000
 H          2.5340000000       -2.6920000000        4.5770000000
 H          3.3470000000       -1.1270000000        4.4090000000
 H          2.3570000000       -1.4590000000        5.8400000000
