  11
 
 C          2.2982708800        0.0574198654       -0.0000380733
 C          0.8459598534        0.4938374732       -0.0000456361
 O          0.0182956155       -0.6784310278        0.0000700840
 C         -1.2842049626       -0.4794471995       -0.0001260896
 O         -1.8455541303        0.5761976699       -0.0004466476
 H          2.9416104120        0.9323786860        0.0001244851
 H          2.5100942994       -0.5400587083        0.8823660678
 H          2.5101983102       -0.5398080090       -0.8825856122
 H          0.6064518069        1.0904973258       -0.8869768557
 H          0.6065015594        1.0906235358        0.8868139688
 H         -1.7939688663       -1.4583570256       -0.0000054548
          11
        -17.61153255
 C          1.7836680176        0.6178883393        0.3449490489
 C          0.9816248275       -0.2993585055       -0.5661908960
 O         -0.0915453997       -0.9300161240        0.1461679789
 C         -1.2184643180       -0.2537270863        0.2582406924
 O         -1.4577270471        0.8300528902       -0.1855484110
 H          2.6225960604        1.0338500426       -0.2054012859
 H          1.1566858759        1.4326236689        0.6988698066
 H          2.1599478919        0.0633937623        1.2011704189
 H          1.5959558372       -1.1203327956       -0.9406521197
 H          0.5620939036        0.2679640702       -1.4031181022
 H         -1.9374699195       -0.8629278953        0.8333461400
