 xtb: 6.7.1 (edcfbbe)
          04112511363D

 14 13  0     0  0            999 V2000
   -1.4558    0.3778   -0.2392 C   0  0  0  0  0  0  0  0  0  0  0  0
   -0.0108    0.3771    0.2742 C   0  0  0  0  0  0  0  0  0  0  0  0
    0.8048   -0.7418   -0.3863 C   0  0  0  0  0  0  0  0  0  0  0  0
    2.0912   -0.8594    0.1733 O   0  0  0  0  0  0  0  0  0  0  0  0
    0.6085    1.6307    0.0872 O   0  0  0  0  0  0  0  0  0  0  0  0
   -2.0690   -0.8300    0.1472 O   0  0  0  0  0  0  0  0  0  0  0  0
   -1.4508    0.4749   -1.3346 H   0  0  0  0  0  0  0  0  0  0  0  0
   -1.9752    1.2418    0.1946 H   0  0  0  0  0  0  0  0  0  0  0  0
   -0.0199    0.2124    1.3566 H   0  0  0  0  0  0  0  0  0  0  0  0
    0.8802   -0.5498   -1.4676 H   0  0  0  0  0  0  0  0  0  0  0  0
    0.3013   -1.6966   -0.2295 H   0  0  0  0  0  0  0  0  0  0  0  0
    2.4620    0.0318    0.2663 H   0  0  0  0  0  0  0  0  0  0  0  0
    0.5962    1.8579   -0.8547 H   0  0  0  0  0  0  0  0  0  0  0  0
   -2.9959   -0.8223   -0.1297 H   0  0  0  0  0  0  0  0  0  0  0  0
  1  2  1  0  0  0  0
  2  3  1  0  0  0  0
  3  4  1  0  0  0  0
  2  5  1  0  0  0  0
  1  6  1  0  0  0  0
  1  7  1  0  0  0  0
  1  8  1  0  0  0  0
  2  9  1  0  0  0  0
  3 10  1  0  0  0  0
  3 11  1  0  0  0  0
  4 12  1  0  0  0  0
  5 13  1  0  0  0  0
  6 14  1  0  0  0  0
M  END
