  12
 
 C          0.1731680458       -0.1407145064       -0.4253508887
 H          0.0268501440        0.0810614630       -1.4914112619
 C          1.4141793929        0.6146322355        0.0801173881
 F          1.2513131845        1.9299637559       -0.0588093548
 F          2.4934238072        0.2761708322       -0.6271785059
 F          1.6727836764        0.3694177932        1.3568451065
 O         -0.8929158887        0.2574748219        0.3588245824
 C         -2.1270455266       -0.2049915028       -0.0299736013
 F         -2.4356621384        0.2507461092       -1.2634070496
 F         -3.0220908124        0.2932993845        0.8122948092
 Cl         0.4942324037       -1.8988749980       -0.2721111647
 H         -2.2034868085       -1.3076321410       -0.0459758731
          12
        -39.72825354
 C          0.0657501231       -0.1183828530       -0.2594067624
 H         -0.2476404980        0.1564683916       -1.2744421976
 C          1.4861363136        0.4153445873       -0.0134157640
 F          2.3336481164       -0.0371744406       -0.9374162395
 F          1.9621430144        0.0755097773        1.1770758925
 F          1.5021158702        1.7494313964       -0.0867098856
 O         -0.7589501652        0.4386877069        0.7222000523
 C         -2.0703375610        0.5840404247        0.4112866121
 F         -2.6665935433       -0.5839782020        0.1167559412
 F         -2.2334335656        1.3541872589       -0.6860216522
 Cl         0.1173680771       -1.9015554740       -0.1495003015
 H         -2.5794931975        1.0519272237        1.2662185270
