 12

C     -0.501000    -0.149000     0.283000
H     -0.696000     0.853000     0.680000
C     -0.073000    -1.069000     1.407000
F     -1.030000    -1.163000     2.355000
F      1.042000    -0.596000     2.008000
F      0.199000    -2.314000     0.963000
O     -1.669000    -0.702000    -0.321000
C     -2.524000     0.284000    -0.874000
F     -2.923000     1.095000     0.136000
F     -3.635000    -0.324000    -1.355000
Cl     0.803000    -0.034000    -0.926000
H     -2.046000     0.884000    -1.655000
