18
 xtb: 6.7.1 (edcfbbe)
C           -1.50937425712782        1.19561968727054       -0.51834643091778
C           -1.12530630732819        0.43928619691429        0.75502697202513
C           -0.04278592696481       -0.64997178747566        0.62213694590722
H           -0.05579055112637       -1.20562398582232        1.57202873261260
C           -0.33698243009795       -1.64522422821598       -0.50044675632623
C            1.38702620529918       -0.11289734351949        0.53853108732985
O            1.72094903044214        0.54766750731119       -0.70065805821630
H           -0.68220976940680        1.77886583286904       -0.93404358353074
H           -1.86351458744782        0.51618329690919       -1.29997488948040
H           -2.32153246990382        1.89825385515395       -0.30358682572690
H           -2.03104768950780       -0.04231175340424        1.14547155147735
H           -0.80495630313771        1.15626460400786        1.52243523670030
H            0.36196882377146       -2.48782186092332       -0.46317249217898
H           -0.24511921621027       -1.18043986324691       -1.48647489306869
H           -1.35318673354214       -2.04425447305340       -0.41286281071737
H            2.08738409208099       -0.95219145520008        0.61591614335476
H            1.57968627156479        0.56517028461317        1.38164685687340
H            1.33656519777709        1.43135837584164       -0.67273163454167
