 xtb: 6.7.1 (edcfbbe)
          04112512203D

 18 17  0     0  0            999 V2000
   -1.7978    1.4422    0.3297 C   0  0  0  0  0  0  0  0  0  0  0  0
   -1.1459    0.3350   -0.4904 C   0  0  0  0  0  0  0  0  0  0  0  0
   -0.2439   -0.5844    0.3420 C   0  0  0  0  0  0  0  0  0  0  0  0
   -0.7478   -0.8188    1.2856 H   0  0  0  0  0  0  0  0  0  0  0  0
    0.0232   -1.8919   -0.4057 C   0  0  0  0  0  0  0  0  0  0  0  0
    1.0762    0.1129    0.7105 C   0  0  0  0  0  0  0  0  0  0  0  0
    1.8332    0.5394   -0.4014 O   0  0  0  0  0  0  0  0  0  0  0  0
   -1.0491    2.1095    0.7487 H   0  0  0  0  0  0  0  0  0  0  0  0
   -2.4617    2.0314   -0.2982 H   0  0  0  0  0  0  0  0  0  0  0  0
   -2.3804    1.0205    1.1460 H   0  0  0  0  0  0  0  0  0  0  0  0
   -0.5481    0.7798   -1.2890 H   0  0  0  0  0  0  0  0  0  0  0  0
   -1.9296   -0.2685   -0.9531 H   0  0  0  0  0  0  0  0  0  0  0  0
    0.7278   -2.5125    0.1440 H   0  0  0  0  0  0  0  0  0  0  0  0
    0.4229   -1.6936   -1.3977 H   0  0  0  0  0  0  0  0  0  0  0  0
   -0.9020   -2.4499   -0.5243 H   0  0  0  0  0  0  0  0  0  0  0  0
    1.6770   -0.5571    1.3414 H   0  0  0  0  0  0  0  0  0  0  0  0
    0.8722    1.0205    1.2825 H   0  0  0  0  0  0  0  0  0  0  0  0
    2.1042   -0.2385   -0.9073 H   0  0  0  0  0  0  0  0  0  0  0  0
  1  2  1  0  0  0  0
  2  3  1  0  0  0  0
  3  4  1  0  0  0  0
  3  5  1  0  0  0  0
  3  6  1  0  0  0  0
  6  7  1  0  0  0  0
  1  8  1  0  0  0  0
  1  9  1  0  0  0  0
  1 10  1  0  0  0  0
  2 11  1  0  0  0  0
  2 12  1  0  0  0  0
  5 13  1  0  0  0  0
  5 14  1  0  0  0  0
  5 15  1  0  0  0  0
  6 16  1  0  0  0  0
  6 17  1  0  0  0  0
  7 18  1  0  0  0  0
M  END
