14
 xtb: 6.7.1 (edcfbbe)
C           -1.01003264729871       -0.60839573855469       -0.15362140060667
C            0.03041092134927        0.25966701927834        0.52697796070221
C            1.38163931993410       -0.41192972060458        0.61536336795932
O            1.82336339110888       -0.78688073165026       -0.70004033909973
O            0.18936405000211        1.51053668642773       -0.16754100219806
O           -2.27150315740793        0.07639399443911       -0.04265903651490
H           -1.05303358861064       -1.58597500180670        0.34745835468471
H           -0.75033191724409       -0.75805465874045       -1.20837617800194
H           -0.30037858274516        0.44968262255447        1.56082637766099
H            1.28985538087365       -1.29581015731599        1.26138646876212
H            2.09487855659069        0.28306552589792        1.07802300819077
H            2.71853050715152       -1.13638598864210       -0.61161607988569
H           -0.69775225521691        1.87252255512164       -0.29766105985125
H           -2.88782789554029       -0.34454853128371       -0.65402519021698
