  19
 
 C         -2.5967865828       -0.9518699229       -0.0310282312
 C         -1.1437624510       -0.5850360790       -0.0068424794
 C         -0.1715054713       -1.5726611236        0.0187647677
 C          1.1758987853       -1.2602422092        0.0417278553
 C          1.5701210161        0.0694105173        0.0392564106
 C          0.6039101368        1.0678218950        0.0136755697
 C         -0.7448791898        0.7559871920       -0.0093044305
 C         -1.7644747476        1.8531223000       -0.0365495192
 O          2.8826638263        0.4404537512        0.0609701520
 H         -3.0798915694       -0.5536088909       -0.9225368522
 H         -2.7201620828       -2.0316218649       -0.0259701761
 H         -3.1129082471       -0.5411155462        0.8365660737
 H         -0.4697935403       -2.6114606734        0.0210252260
 H          1.9185708649       -2.0472549223        0.0615414443
 H          0.9314522560        2.0959916092        0.0123095759
 H         -2.3816748445        1.7797194288       -0.9313463264
 H         -2.4252481829        1.7844115402        0.8275648906
 H         -1.2821330884        2.8268369338       -0.0274978383
 H          3.4393645854       -0.3469113550        0.0799749490
          19
        -26.29482421
 C         -2.6023252592       -0.9364329264       -0.0003024587
 C         -1.1469237463       -0.5780691002        0.0000517743
 C         -0.1799277852       -1.5710482663        0.0001609708
 C          1.1694583616       -1.2662347843        0.0002166050
 C          1.5710484249        0.0611537723        0.0000367577
 C          0.6100713646        1.0650153344        0.0000126337
 C         -0.7405361784        0.7607847812        0.0000820071
 C         -1.7544651103        1.8636335291        0.0001358977
 O          2.8857071461        0.4252446812       -0.0002562580
 H         -2.7320108056       -2.0157380219       -0.0001465116
 H         -3.1000399148       -0.5282917553        0.8790652968
 H         -3.0991708539       -0.5287990022       -0.8804607020
 H         -0.4837094941       -2.6082712728        0.0003060181
 H          1.9079293071       -2.0574431262        0.0002450933
 H          0.9433711862        2.0913310447       -0.0000612138
 H         -2.3943981743        1.7954411955        0.8792915439
 H         -1.2669351068        2.8347106421        0.0006982095
 H         -2.3937485964        1.7961009866       -0.8795246315
 H          3.4386606865       -0.3649863744       -0.0000427406
