 xtb: 6.7.1 (edcfbbe)
          04112511103D

 18 17  0     0  0            999 V2000
    2.1967   -0.7473    0.5789 C   0  0  0  0  0  0  0  0  0  0  0  0
    1.4144    0.4186   -0.0161 C   0  0  0  0  0  0  0  0  0  0  0  0
    0.3305   -0.0250   -1.0089 C   0  0  0  0  0  0  0  0  0  0  0  0
   -1.0893   -0.0220   -0.4176 C   0  0  0  0  0  0  0  0  0  0  0  0
   -1.7899   -0.3035   -1.2231 H   0  0  0  0  0  0  0  0  0  0  0  0
   -1.2636   -1.0071    0.7334 C   0  0  0  0  0  0  0  0  0  0  0  0
   -1.4469    1.2606    0.0742 O   0  0  0  0  0  0  0  0  0  0  0  0
    2.9405   -0.3800    1.2825 H   0  0  0  0  0  0  0  0  0  0  0  0
    2.7119   -1.2958   -0.2069 H   0  0  0  0  0  0  0  0  0  0  0  0
    1.5403   -1.4359    1.1028 H   0  0  0  0  0  0  0  0  0  0  0  0
    0.9437    0.9959    0.7828 H   0  0  0  0  0  0  0  0  0  0  0  0
    2.1191    1.0808   -0.5231 H   0  0  0  0  0  0  0  0  0  0  0  0
    0.3304    0.6461   -1.8713 H   0  0  0  0  0  0  0  0  0  0  0  0
    0.5461   -1.0283   -1.3775 H   0  0  0  0  0  0  0  0  0  0  0  0
   -0.6467   -0.7070    1.5749 H   0  0  0  0  0  0  0  0  0  0  0  0
   -2.3013   -1.0039    1.0566 H   0  0  0  0  0  0  0  0  0  0  0  0
   -0.9909   -2.0081    0.4144 H   0  0  0  0  0  0  0  0  0  0  0  0
   -1.3679    1.9086   -0.6381 H   0  0  0  0  0  0  0  0  0  0  0  0
  1  2  1  0  0  0  0
  2  3  1  0  0  0  0
  3  4  1  0  0  0  0
  4  5  1  0  0  0  0
  4  6  1  0  0  0  0
  4  7  1  0  0  0  0
  1  8  1  0  0  0  0
  1  9  1  0  0  0  0
  1 10  1  0  0  0  0
  2 11  1  0  0  0  0
  2 12  1  0  0  0  0
  3 13  1  0  0  0  0
  3 14  1  0  0  0  0
  6 15  1  0  0  0  0
  6 16  1  0  0  0  0
  6 17  1  0  0  0  0
  7 18  1  0  0  0  0
M  END
