  22
 
 C          1.8180000000       -1.2740000000        2.9620000000
 C          1.2930000000       -1.4710000000        1.5490000000
 C          0.5510000000       -0.2310000000        1.0500000000
 C          0.0240000000       -0.4330000000       -0.3720000000
 C         -0.7190000000        0.8070000000       -0.8720000000
 C         -1.2450000000        0.6060000000       -2.2930000000
 C         -1.9580000000        1.8000000000       -2.7680000000
 C         -2.5420000000        2.7730000000       -3.1590000000
 H          2.3480000000       -2.1660000000        3.3110000000
 H          0.9900000000       -1.0810000000        3.6510000000
 H          2.5060000000       -0.4240000000        3.0110000000
 H          2.1330000000       -1.6960000000        0.8820000000
 H          0.6240000000       -2.3380000000        1.5320000000
 H          1.2240000000        0.6340000000        1.0730000000
 H         -0.2860000000       -0.0080000000        1.7230000000
 H         -0.6490000000       -1.2990000000       -0.3950000000
 H          0.8610000000       -0.6560000000       -1.0450000000
 H         -1.5540000000        1.0330000000       -0.1960000000
 H         -0.0470000000        1.6750000000       -0.8440000000
 H         -1.9200000000       -0.2580000000       -2.3200000000
 H         -0.4120000000        0.3840000000       -2.9700000000
 H         -3.0610000000        3.6360000000       -3.5040000000
