19
 xtb: 6.7.1 (edcfbbe)
C            1.71977012372602        1.26215920605163        0.12330497258009
C            1.13839580648968       -0.15189067896347        0.13508638405850
C            2.19262912754854       -1.15321608272770       -0.33969156375248
C           -0.12735865975063       -0.28153016893349       -0.75836532889519
C           -1.42061114095615       -0.00938751456766       -0.03570287188684
O           -2.27104583338962       -0.89211842136707        0.07695722524700
C           -1.64063390407234        1.34621133402905        0.56546182742917
H            2.58993688037345        1.32297618187495        0.78552786355104
H            2.04768336891685        1.52466619651989       -0.88972360067420
H            1.00009051441977        2.01756244538024        0.44877065451904
H            0.86043318422472       -0.41146636106946        1.16578873641631
H            2.46055445018823       -0.95945853055490       -1.38528472261756
H            1.82647721057356       -2.18231977649197       -0.26815851961631
H            3.10340943856088       -1.07117929331324        0.26305847444071
H           -0.19420402212795       -1.29385371602669       -1.16636488774703
H           -0.03893315177970        0.42081401544041       -1.59849584535716
H           -2.67859848427428        1.45858358485363        0.88367347844684
H           -0.98741974763212        1.45539268293298        1.44039993055926
H           -1.36483704416932        2.13664778426337       -0.13898815805512
