 xtb: 6.7.1 (edcfbbe)
          04112511523D

 13 12  0     0  0            999 V2000
   -2.2793   -0.2071   -0.1090 C   0  0  0  0  0  0  0  0  0  0  0  0
   -0.9402   -0.2893    0.3267 O   0  0  0  0  0  0  0  0  0  0  0  0
   -0.1065    0.6921   -0.2552 C   0  0  0  0  0  0  0  0  0  0  0  0
    1.3162    0.5259    0.2787 C   0  0  0  0  0  0  0  0  0  0  0  0
    1.9524   -0.6514   -0.1524 O   0  0  0  0  0  0  0  0  0  0  0  0
   -2.8144   -1.0020    0.4036 H   0  0  0  0  0  0  0  0  0  0  0  0
   -2.3494   -0.3516   -1.1929 H   0  0  0  0  0  0  0  0  0  0  0  0
   -2.7154    0.7638    0.1515 H   0  0  0  0  0  0  0  0  0  0  0  0
   -0.1187    0.5892   -1.3513 H   0  0  0  0  0  0  0  0  0  0  0  0
   -0.4720    1.6969    0.0034 H   0  0  0  0  0  0  0  0  0  0  0  0
    1.2801    0.4561    1.3671 H   0  0  0  0  0  0  0  0  0  0  0  0
    1.9030    1.4087   -0.0082 H   0  0  0  0  0  0  0  0  0  0  0  0
    1.9665   -0.6759   -1.1200 H   0  0  0  0  0  0  0  0  0  0  0  0
  1  2  1  0  0  0  0
  2  3  1  0  0  0  0
  3  4  1  0  0  0  0
  4  5  1  0  0  0  0
  1  6  1  0  0  0  0
  1  7  1  0  0  0  0
  1  8  1  0  0  0  0
  3  9  1  0  0  0  0
  3 10  1  0  0  0  0
  4 11  1  0  0  0  0
  4 12  1  0  0  0  0
  5 13  1  0  0  0  0
M  END
