 xtb: 6.7.1 (edcfbbe)
          04112511573D

 14 13  0     0  0            999 V2000
    1.6183   -0.8122   -0.1525 C   0  0  0  0  0  0  0  0  0  0  0  0
    1.2798    0.5522   -0.0160 O   0  0  0  0  0  0  0  0  0  0  0  0
    0.0113    0.8019    0.5610 C   0  0  0  0  0  0  0  0  0  0  0  0
   -1.1818    0.4500   -0.3431 C   0  0  0  0  0  0  0  0  0  0  0  0
   -1.7472   -0.8468    0.0072 N   0  0  0  0  0  0  0  0  0  0  0  0
    1.4540   -1.3506    0.7865 H   0  0  0  0  0  0  0  0  0  0  0  0
    2.6752   -0.8348   -0.4093 H   0  0  0  0  0  0  0  0  0  0  0  0
    1.0460   -1.2912   -0.9536 H   0  0  0  0  0  0  0  0  0  0  0  0
   -0.0895    0.2562    1.5083 H   0  0  0  0  0  0  0  0  0  0  0  0
    0.0214    1.8740    0.7622 H   0  0  0  0  0  0  0  0  0  0  0  0
   -1.9667    1.1930   -0.1877 H   0  0  0  0  0  0  0  0  0  0  0  0
   -0.8479    0.5238   -1.3917 H   0  0  0  0  0  0  0  0  0  0  0  0
   -1.0864   -1.5897   -0.1936 H   0  0  0  0  0  0  0  0  0  0  0  0
   -2.5774   -1.0188   -0.5478 H   0  0  0  0  0  0  0  0  0  0  0  0
  1  2  1  0  0  0  0
  2  3  1  0  0  0  0
  3  4  1  0  0  0  0
  4  5  1  0  0  0  0
  1  6  1  0  0  0  0
  1  7  1  0  0  0  0
  1  8  1  0  0  0  0
  3  9  1  0  0  0  0
  3 10  1  0  0  0  0
  4 11  1  0  0  0  0
  4 12  1  0  0  0  0
  5 13  1  0  0  0  0
  5 14  1  0  0  0  0
M  END
