 22

C      1.113000     2.105000     0.493000
C      1.314000     1.353000    -0.815000
C      2.619000     1.722000    -1.511000
N      2.801000     1.009000    -2.745000
C      4.058000     1.375000    -3.400000
C      4.245000     0.620000    -4.699000
C      5.543000     0.972000    -5.413000
H      0.169000     1.819000     0.969000
H      1.926000     1.874000     1.189000
H      1.105000     3.188000     0.335000
H      0.478000     1.585000    -1.484000
H      1.284000     0.275000    -0.619000
H      2.625000     2.789000    -1.755000
H      3.483000     1.514000    -0.872000
H      2.030000     1.212000    -3.391000
H      4.842000     1.130000    -2.688000
H      4.029000     2.451000    -3.545000
H      4.252000    -0.452000    -4.468000
H      3.401000     0.801000    -5.375000
H      5.643000     0.408000    -6.346000
H      5.560000     2.039000    -5.659000
H      6.414000     0.759000    -4.786000
