 23

C      2.990000     0.417000    -0.208000
C      1.657000    -0.318000    -0.221000
C      0.424000     0.610000    -0.125000
H      0.462000     1.282000    -0.994000
C     -0.844000    -0.241000    -0.280000
C      0.399000     1.504000     1.148000
C     -0.824000     2.420000     1.239000
C      0.514000     0.674000     2.433000
H      3.813000    -0.301000    -0.279000
H      3.080000     1.103000    -1.054000
H      3.116000     0.986000     0.719000
H      1.646000    -1.006000     0.634000
H      1.599000    -0.945000    -1.118000
H     -1.750000     0.368000    -0.220000
H     -0.855000    -0.782000    -1.232000
H     -0.907000    -0.986000     0.522000
H      1.288000     2.146000     1.124000
H     -0.803000     3.030000     2.147000
H     -1.745000     1.826000     1.271000
H     -0.896000     3.090000     0.376000
H      0.494000     1.328000     3.312000
H      1.457000     0.118000     2.456000
H     -0.310000    -0.038000     2.536000
