 xtb: 6.7.1 (edcfbbe)
          04112512243D

 23 22  0     0  0            999 V2000
    2.2746    0.9418    0.8164 C   0  0  0  0  0  0  0  0  0  0  0  0
    1.4214   -0.3132    0.6634 C   0  0  0  0  0  0  0  0  0  0  0  0
    0.3325   -0.1720   -0.4228 C   0  0  0  0  0  0  0  0  0  0  0  0
    0.4785    0.7844   -0.9373 H   0  0  0  0  0  0  0  0  0  0  0  0
    0.4913   -1.2866   -1.4587 C   0  0  0  0  0  0  0  0  0  0  0  0
   -1.0817   -0.1563    0.1914 C   0  0  0  0  0  0  0  0  0  0  0  0
   -1.2688    1.0595    1.1000 C   0  0  0  0  0  0  0  0  0  0  0  0
   -2.1757   -0.1397   -0.8774 C   0  0  0  0  0  0  0  0  0  0  0  0
    3.0251    0.7992    1.5910 H   0  0  0  0  0  0  0  0  0  0  0  0
    2.7861    1.1678   -0.1168 H   0  0  0  0  0  0  0  0  0  0  0  0
    1.6617    1.7983    1.0863 H   0  0  0  0  0  0  0  0  0  0  0  0
    0.9631   -0.5569    1.6234 H   0  0  0  0  0  0  0  0  0  0  0  0
    2.0790   -1.1469    0.4097 H   0  0  0  0  0  0  0  0  0  0  0  0
   -0.1569   -1.1280   -2.3155 H   0  0  0  0  0  0  0  0  0  0  0  0
    1.5173   -1.3130   -1.8193 H   0  0  0  0  0  0  0  0  0  0  0  0
    0.2564   -2.2529   -1.0166 H   0  0  0  0  0  0  0  0  0  0  0  0
   -1.2031   -1.0652    0.7928 H   0  0  0  0  0  0  0  0  0  0  0  0
   -1.1679    1.9765    0.5229 H   0  0  0  0  0  0  0  0  0  0  0  0
   -0.5388    1.0759    1.9037 H   0  0  0  0  0  0  0  0  0  0  0  0
   -2.2606    1.0452    1.5469 H   0  0  0  0  0  0  0  0  0  0  0  0
   -2.2087   -1.0743   -1.4292 H   0  0  0  0  0  0  0  0  0  0  0  0
   -2.0086    0.6759   -1.5780 H   0  0  0  0  0  0  0  0  0  0  0  0
   -3.1471    0.0065   -0.4102 H   0  0  0  0  0  0  0  0  0  0  0  0
  1  2  1  0  0  0  0
  2  3  1  0  0  0  0
  3  4  1  0  0  0  0
  3  5  1  0  0  0  0
  3  6  1  0  0  0  0
  6  7  1  0  0  0  0
  6  8  1  0  0  0  0
  1  9  1  0  0  0  0
  1 10  1  0  0  0  0
  1 11  1  0  0  0  0
  2 12  1  0  0  0  0
  2 13  1  0  0  0  0
  5 14  1  0  0  0  0
  5 15  1  0  0  0  0
  5 16  1  0  0  0  0
  6 17  1  0  0  0  0
  7 18  1  0  0  0  0
  7 19  1  0  0  0  0
  7 20  1  0  0  0  0
  8 21  1  0  0  0  0
  8 22  1  0  0  0  0
  8 23  1  0  0  0  0
M  END
