18
 xtb: 6.7.1 (edcfbbe)
C           -1.94691883218522        1.46521589354175        0.04309733477849
C           -1.52421368085993        0.02730805727315       -0.25534259044051
C           -0.13417610172776       -0.36604077094462        0.26863008606854
H           -0.11224892074901       -0.17410638153220        1.35294568172729
C            0.12322118974386       -1.85247696320558        0.02380267547252
C            0.95157247460431        0.49356218729503       -0.37312364298069
O            2.27785283100091        0.18162920495904        0.10246617035138
H           -2.99865633624941        1.61969860065230       -0.21827759539999
H           -1.83140898108871        1.69548978644309        1.10838521975984
H           -1.36114041699584        2.19544320081885       -0.52284876624531
H           -1.55663301869274       -0.15244688447806       -1.33908057834738
H           -2.25403768583202       -0.65915331472068        0.19119391085227
H           -0.65193345942579       -2.46396582528409        0.49762140959140
H            1.09068996346755       -2.16880257338154        0.42410594313593
H            0.11424508089986       -2.07029281614428       -1.05144424338481
H            0.74895191253042        1.55914937525562       -0.20673473648455
H            0.97440800685685        0.31620888051930       -1.45533218452365
H            2.28920956785709        0.37203044769356        1.04958988309634
