 xtb: 6.7.1 (edcfbbe)
          04072506013D

 15 14  0     0  0            999 V2000
    2.8080   -0.4468    0.1568 C   0  0  0  0  0  0  0  0  0  0  0  0
    1.4040   -0.2774   -0.4093 C   0  0  0  0  0  0  0  0  0  0  0  0
    0.6340    0.8267    0.3112 C   0  0  0  0  0  0  0  0  0  0  0  0
   -0.7776    1.0003   -0.2256 C   0  0  0  0  0  0  0  0  0  0  0  0
   -1.8310   -0.4773    0.0297 S   0  0  0  0  0  0  0  0  0  0  0  0
    3.3378   -1.2351   -0.3717 H   0  0  0  0  0  0  0  0  0  0  0  0
    2.7652   -0.7091    1.2114 H   0  0  0  0  0  0  0  0  0  0  0  0
    3.3741    0.4765    0.0553 H   0  0  0  0  0  0  0  0  0  0  0  0
    0.8560   -1.2177   -0.3141 H   0  0  0  0  0  0  0  0  0  0  0  0
    1.4652   -0.0373   -1.4735 H   0  0  0  0  0  0  0  0  0  0  0  0
    1.1594    1.7769    0.1879 H   0  0  0  0  0  0  0  0  0  0  0  0
    0.5934    0.6030    1.3798 H   0  0  0  0  0  0  0  0  0  0  0  0
   -1.2843    1.8425    0.2441 H   0  0  0  0  0  0  0  0  0  0  0  0
   -0.7716    1.1439   -1.3060 H   0  0  0  0  0  0  0  0  0  0  0  0
   -1.7796   -0.4646    1.3563 H   0  0  0  0  0  0  0  0  0  0  0  0
  1  2  1  0  0  0  0
  2  3  1  0  0  0  0
  3  4  1  0  0  0  0
  4  5  1  0  0  0  0
  1  6  1  0  0  0  0
  1  7  1  0  0  0  0
  1  8  1  0  0  0  0
  2  9  1  0  0  0  0
  2 10  1  0  0  0  0
  3 11  1  0  0  0  0
  3 12  1  0  0  0  0
  4 13  1  0  0  0  0
  4 14  1  0  0  0  0
  5 15  1  0  0  0  0
M  END
