  19
 
 C         -2.4796563019        0.8233066122       -0.0493927624
 C         -1.2247262316        0.0081381418        0.0006232480
 C         -1.2503402177       -1.3748200782        0.0657630036
 C         -0.0765275442       -2.1067462375        0.1007534932
 C          1.1408406977       -1.4533988531        0.0711575532
 C          1.2057336861       -0.0689466941        0.0073893434
 C          0.0133538085        0.6566279359       -0.0282484046
 O          0.0049064229        2.0218835025       -0.0897818712
 C          2.5320656589        0.6414901037       -0.0232236393
 H         -2.6176613635        1.2345159607       -1.0491590273
 H         -3.3455101934        0.2169396706        0.2032624440
 H         -2.4091672861        1.6618761400        0.6408038320
 H         -2.2034008250       -1.8827847620        0.0896337450
 H         -0.1110617617       -3.1845290917        0.1513946261
 H          2.0590220938       -2.0222301041        0.0986115477
 H          0.9126088199        2.3457436890       -0.0848494513
 H          2.6322635640        1.2514983038       -0.9233353082
 H          2.6550693398        1.2860927663        0.8503514067
 H          3.3421671391       -0.0831991236       -0.0203337707
          19
        -26.29335958
 C         -2.5015947426        0.7434194297        0.0003758499
 C         -1.2189665214       -0.0284493262       -0.0001253607
 C         -1.1919607800       -1.4126781032       -0.0000738617
 C          0.0093935326       -2.0996751083       -0.0001078065
 C          1.2007192437       -1.3994144673       -0.0000429663
 C          1.2126234600       -0.0118905710       -0.0000048648
 C         -0.0066772550        0.6677515258       -0.0001597207
 O         -0.0698099879        2.0327749805       -0.0003927925
 C          2.5104024565        0.7498981128        0.0003694552
 H         -2.5516384632        1.3839570508        0.8797480736
 H         -2.5480842379        1.3909498009       -0.8739751323
 H         -3.3574579402        0.0740156330       -0.0037364382
 H         -2.1249420990       -1.9571539908        0.0003931541
 H          0.0168679873       -3.1791493986       -0.0001430093
 H          2.1399439741       -1.9335540700       -0.0003526809
 H          0.8243429830        2.3925705710       -0.0002809674
 H          2.5972655603        1.3822576892       -0.8856201211
 H          2.5975032797        1.3802445143        0.8878844497
 H          3.3482486267        0.0580077434       -0.0004316531
