 19

C      1.950000    -1.022000    -1.604000
C      1.885000    -1.036000    -0.112000
C      2.921000    -1.631000     0.608000
C      2.878000    -1.652000     2.002000
C      1.800000    -1.079000     2.676000
C      0.764000    -0.484000     1.955000
C      0.807000    -0.463000     0.561000
O     -0.206000     0.119000    -0.143000
C     -0.383000     0.124000     2.694000
H      2.464000    -0.119000    -1.948000
H      2.487000    -1.899000    -1.980000
H      0.946000    -1.046000    -2.039000
H      3.766000    -2.078000     0.092000
H      3.685000    -2.115000     2.563000
H      1.775000    -1.101000     3.762000
H     -0.876000     0.470000     0.464000
H     -0.178000     1.179000     2.912000
H     -1.309000     0.061000     2.111000
H     -0.566000    -0.399000     3.641000
