  19
 
 C          1.9500000000       -1.0220000000       -1.6040000000
 C          1.8850000000       -1.0360000000       -0.1120000000
 C          2.9210000000       -1.6310000000        0.6080000000
 C          2.8780000000       -1.6520000000        2.0020000000
 C          1.8000000000       -1.0790000000        2.6760000000
 C          0.7640000000       -0.4840000000        1.9550000000
 C          0.8070000000       -0.4630000000        0.5610000000
 O         -0.2060000000        0.1190000000       -0.1430000000
 C         -0.3830000000        0.1240000000        2.6940000000
 H          2.4640000000       -0.1190000000       -1.9480000000
 H          2.4870000000       -1.8990000000       -1.9800000000
 H          0.9460000000       -1.0460000000       -2.0390000000
 H          3.7660000000       -2.0780000000        0.0920000000
 H          3.6850000000       -2.1150000000        2.5630000000
 H          1.7750000000       -1.1010000000        3.7620000000
 H         -0.8760000000        0.4700000000        0.4640000000
 H         -0.1780000000        1.1790000000        2.9120000000
 H         -1.3090000000        0.0610000000        2.1110000000
 H         -0.5660000000       -0.3990000000        3.6410000000
