 xtb: 6.7.1 (edcfbbe)
          04112512133D

 24 24  0     0  0            999 V2000
   -2.9253    0.5403   -0.6247 C   0  0  0  0  0  0  0  0  0  0  0  0
   -1.8350   -0.5140   -0.4614 C   0  0  0  0  0  0  0  0  0  0  0  0
   -1.1845   -0.4745    0.9323 C   0  0  0  0  0  0  0  0  0  0  0  0
    0.3206   -0.1869    0.9306 C   0  0  0  0  0  0  0  0  0  0  0  0
    1.1506   -1.2056    0.1161 C   0  0  0  0  0  0  0  0  0  0  0  0
    1.9629   -0.3864   -0.8939 C   0  0  0  0  0  0  0  0  0  0  0  0
    2.0711    0.9927   -0.2491 C   0  0  0  0  0  0  0  0  0  0  0  0
    0.6834    1.1902    0.3528 C   0  0  0  0  0  0  0  0  0  0  0  0
   -2.5200    1.5390   -0.4773 H   0  0  0  0  0  0  0  0  0  0  0  0
   -3.3587    0.4896   -1.6214 H   0  0  0  0  0  0  0  0  0  0  0  0
   -3.7197    0.3837    0.1018 H   0  0  0  0  0  0  0  0  0  0  0  0
   -2.2734   -1.4983   -0.6370 H   0  0  0  0  0  0  0  0  0  0  0  0
   -1.0779   -0.3589   -1.2306 H   0  0  0  0  0  0  0  0  0  0  0  0
   -1.6725    0.2948    1.5346 H   0  0  0  0  0  0  0  0  0  0  0  0
   -1.3448   -1.4276    1.4404 H   0  0  0  0  0  0  0  0  0  0  0  0
    0.6530   -0.2199    1.9736 H   0  0  0  0  0  0  0  0  0  0  0  0
    1.8210   -1.7539    0.7784 H   0  0  0  0  0  0  0  0  0  0  0  0
    0.5127   -1.9339   -0.3817 H   0  0  0  0  0  0  0  0  0  0  0  0
    2.9357   -0.8308   -1.0997 H   0  0  0  0  0  0  0  0  0  0  0  0
    1.4215   -0.3049   -1.8380 H   0  0  0  0  0  0  0  0  0  0  0  0
    2.8233    0.9765    0.5415 H   0  0  0  0  0  0  0  0  0  0  0  0
    2.3358    1.7717   -0.9629 H   0  0  0  0  0  0  0  0  0  0  0  0
    0.6620    1.9691    1.1140 H   0  0  0  0  0  0  0  0  0  0  0  0
   -0.0169    1.4659   -0.4354 H   0  0  0  0  0  0  0  0  0  0  0  0
  1  2  1  0  0  0  0
  2  3  1  0  0  0  0
  3  4  1  0  0  0  0
  4  5  1  0  0  0  0
  5  6  1  0  0  0  0
  6  7  1  0  0  0  0
  4  8  1  0  0  0  0
  7  8  1  0  0  0  0
  1  9  1  0  0  0  0
  1 10  1  0  0  0  0
  1 11  1  0  0  0  0
  2 12  1  0  0  0  0
  2 13  1  0  0  0  0
  3 14  1  0  0  0  0
  3 15  1  0  0  0  0
  4 16  1  0  0  0  0
  5 17  1  0  0  0  0
  5 18  1  0  0  0  0
  6 19  1  0  0  0  0
  6 20  1  0  0  0  0
  7 21  1  0  0  0  0
  7 22  1  0  0  0  0
  8 23  1  0  0  0  0
  8 24  1  0  0  0  0
M  END
