14
 xtb: 6.7.1 (edcfbbe)
C           -1.43269843483272        0.09873787007239        0.63912525552104
C            0.05013095285023        0.37384638976464        0.46709383481661
C            0.81869335462712       -0.87694168518112        0.05848002810363
O            2.23687818171449       -0.65751339765325        0.01859189949856
O            0.28258506317353        1.45271148577150       -0.45626747685916
O           -1.95823358300080       -0.37361006043661       -0.61454187104418
H           -1.93732283729492        1.02488522935614        0.94226415830362
H           -1.57473819262891       -0.65290361766103        1.42867500490831
H            0.43419383234909        0.72464859086041        1.43357340097996
H            0.53328118898492       -1.18305776920900       -0.95284790656068
H            0.57141115432005       -1.69433889370397        0.75080979907210
H            2.52199863814372       -0.44780376781411        0.91794026672323
H           -0.08407600431267        1.17758192571807       -1.30836194094537
H           -2.91993440252764       -0.38851400203807       -0.53834138478078
