 xtb: 6.7.1 (edcfbbe)
          04112512013D

 18 17  0     0  0            999 V2000
    1.0225   -1.2668    0.6471 C   0  0  0  0  0  0  0  0  0  0  0  0
    1.0813    0.2417    0.4226 C   0  0  0  0  0  0  0  0  0  0  0  0
    1.7083    0.5580   -0.9347 C   0  0  0  0  0  0  0  0  0  0  0  0
   -0.2938    0.9045    0.5965 C   0  0  0  0  0  0  0  0  0  0  0  0
   -1.3698    0.5164   -0.4179 C   0  0  0  0  0  0  0  0  0  0  0  0
   -1.8720   -0.7770   -0.1357 O   0  0  0  0  0  0  0  0  0  0  0  0
    0.3763   -1.7376   -0.0881 H   0  0  0  0  0  0  0  0  0  0  0  0
    0.6244   -1.4894    1.6341 H   0  0  0  0  0  0  0  0  0  0  0  0
    2.0173   -1.6996    0.5676 H   0  0  0  0  0  0  0  0  0  0  0  0
    1.7269    0.6737    1.1974 H   0  0  0  0  0  0  0  0  0  0  0  0
    2.7444    0.2286   -0.9506 H   0  0  0  0  0  0  0  0  0  0  0  0
    1.6839    1.6276   -1.1301 H   0  0  0  0  0  0  0  0  0  0  0  0
    1.1824    0.0441   -1.7352 H   0  0  0  0  0  0  0  0  0  0  0  0
   -0.1650    1.9871    0.5380 H   0  0  0  0  0  0  0  0  0  0  0  0
   -0.6769    0.6610    1.5895 H   0  0  0  0  0  0  0  0  0  0  0  0
   -2.1858    1.2496   -0.3474 H   0  0  0  0  0  0  0  0  0  0  0  0
   -0.9650    0.5531   -1.4366 H   0  0  0  0  0  0  0  0  0  0  0  0
   -2.5927   -0.9792   -0.7460 H   0  0  0  0  0  0  0  0  0  0  0  0
  1  2  1  0  0  0  0
  2  3  1  0  0  0  0
  2  4  1  0  0  0  0
  4  5  1  0  0  0  0
  5  6  1  0  0  0  0
  1  7  1  0  0  0  0
  1  8  1  0  0  0  0
  1  9  1  0  0  0  0
  2 10  1  0  0  0  0
  3 11  1  0  0  0  0
  3 12  1  0  0  0  0
  3 13  1  0  0  0  0
  4 14  1  0  0  0  0
  4 15  1  0  0  0  0
  5 16  1  0  0  0  0
  5 17  1  0  0  0  0
  6 18  1  0  0  0  0
M  END
