 xtb: 6.7.1 (edcfbbe)
          04112512423D

 17 16  0     0  0            999 V2000
   -2.2756    0.7551    0.9997 C   0  0  0  0  0  0  0  0  0  0  0  0
   -1.8634    0.3177   -0.4076 C   0  0  0  0  0  0  0  0  0  0  0  0
   -0.5645   -0.4450   -0.3639 C   0  0  0  0  0  0  0  0  0  0  0  0
   -0.4436   -1.6268   -0.6188 O   0  0  0  0  0  0  0  0  0  0  0  0
    0.4502    0.3240   -0.0005 O   0  0  0  0  0  0  0  0  0  0  0  0
    1.7481   -0.2848    0.1027 C   0  0  0  0  0  0  0  0  0  0  0  0
    2.7449    0.7879    0.4960 C   0  0  0  0  0  0  0  0  0  0  0  0
   -3.2146    1.2983    0.9530 H   0  0  0  0  0  0  0  0  0  0  0  0
   -2.4061   -0.1113    1.6435 H   0  0  0  0  0  0  0  0  0  0  0  0
   -1.5147    1.4004    1.4296 H   0  0  0  0  0  0  0  0  0  0  0  0
   -1.7218    1.1976   -1.0353 H   0  0  0  0  0  0  0  0  0  0  0  0
   -2.6215   -0.3294   -0.8473 H   0  0  0  0  0  0  0  0  0  0  0  0
    1.6964   -1.0859    0.8474 H   0  0  0  0  0  0  0  0  0  0  0  0
    1.9950   -0.7357   -0.8642 H   0  0  0  0  0  0  0  0  0  0  0  0
    2.7539    1.5779   -0.2490 H   0  0  0  0  0  0  0  0  0  0  0  0
    2.4736    1.2151    1.4567 H   0  0  0  0  0  0  0  0  0  0  0  0
    3.7348    0.3494    0.5657 H   0  0  0  0  0  0  0  0  0  0  0  0
  1  2  1  0  0  0  0
  2  3  1  0  0  0  0
  3  4  2  0  0  0  0
  3  5  1  0  0  0  0
  5  6  1  0  0  0  0
  6  7  1  0  0  0  0
  1  8  1  0  0  0  0
  1  9  1  0  0  0  0
  1 10  1  0  0  0  0
  2 11  1  0  0  0  0
  2 12  1  0  0  0  0
  6 13  1  0  0  0  0
  6 14  1  0  0  0  0
  7 15  1  0  0  0  0
  7 16  1  0  0  0  0
  7 17  1  0  0  0  0
M  END
