 xtb: 6.7.1 (edcfbbe)
          04112512473D

 23 22  0     0  0            999 V2000
    2.7497    0.4943   -0.3658 C   0  0  0  0  0  0  0  0  0  0  0  0
    1.2994    0.8985   -0.1216 C   0  0  0  0  0  0  0  0  0  0  0  0
    0.3168   -0.2760   -0.2329 C   0  0  0  0  0  0  0  0  0  0  0  0
    0.5449   -0.8066   -1.1658 H   0  0  0  0  0  0  0  0  0  0  0  0
    0.5067   -1.2547    0.9248 C   0  0  0  0  0  0  0  0  0  0  0  0
   -1.1366    0.2305   -0.3588 C   0  0  0  0  0  0  0  0  0  0  0  0
   -2.0739   -0.8701   -0.8573 C   0  0  0  0  0  0  0  0  0  0  0  0
   -1.6839    0.8280    0.9362 C   0  0  0  0  0  0  0  0  0  0  0  0
    2.8524    0.0102   -1.3347 H   0  0  0  0  0  0  0  0  0  0  0  0
    3.3902    1.3732   -0.3527 H   0  0  0  0  0  0  0  0  0  0  0  0
    3.1011   -0.1907    0.4009 H   0  0  0  0  0  0  0  0  0  0  0  0
    1.0234    1.6587   -0.8567 H   0  0  0  0  0  0  0  0  0  0  0  0
    1.2189    1.3511    0.8685 H   0  0  0  0  0  0  0  0  0  0  0  0
    1.4848   -1.7243    0.8639 H   0  0  0  0  0  0  0  0  0  0  0  0
    0.4345   -0.7413    1.8802 H   0  0  0  0  0  0  0  0  0  0  0  0
   -0.2408   -2.0423    0.8939 H   0  0  0  0  0  0  0  0  0  0  0  0
   -1.1304    1.0224   -1.1183 H   0  0  0  0  0  0  0  0  0  0  0  0
   -3.0635   -0.4604   -1.0463 H   0  0  0  0  0  0  0  0  0  0  0  0
   -2.1740   -1.6626   -0.1200 H   0  0  0  0  0  0  0  0  0  0  0  0
   -1.7009   -1.3042   -1.7823 H   0  0  0  0  0  0  0  0  0  0  0  0
   -2.6651    1.2616    0.7556 H   0  0  0  0  0  0  0  0  0  0  0  0
   -1.0317    1.6117    1.3114 H   0  0  0  0  0  0  0  0  0  0  0  0
   -1.7889    0.0629    1.7006 H   0  0  0  0  0  0  0  0  0  0  0  0
  1  2  1  0  0  0  0
  2  3  1  0  0  0  0
  3  4  1  0  0  0  0
  3  5  1  0  0  0  0
  3  6  1  0  0  0  0
  6  7  1  0  0  0  0
  6  8  1  0  0  0  0
  1  9  1  0  0  0  0
  1 10  1  0  0  0  0
  1 11  1  0  0  0  0
  2 12  1  0  0  0  0
  2 13  1  0  0  0  0
  5 14  1  0  0  0  0
  5 15  1  0  0  0  0
  5 16  1  0  0  0  0
  6 17  1  0  0  0  0
  7 18  1  0  0  0  0
  7 19  1  0  0  0  0
  7 20  1  0  0  0  0
  8 21  1  0  0  0  0
  8 22  1  0  0  0  0
  8 23  1  0  0  0  0
M  END
