 xtb: 6.7.1 (edcfbbe)
          04112511193D

 14 13  0     0  0            999 V2000
   -1.1456    0.1981   -0.5120 C   0  0  0  0  0  0  0  0  0  0  0  0
   -0.0404    0.5163    0.4983 C   0  0  0  0  0  0  0  0  0  0  0  0
    0.9381   -0.6593    0.6147 C   0  0  0  0  0  0  0  0  0  0  0  0
    1.5795   -0.8676   -0.6246 O   0  0  0  0  0  0  0  0  0  0  0  0
    0.5749    1.7110    0.0794 O   0  0  0  0  0  0  0  0  0  0  0  0
   -1.9687   -0.8104    0.0281 O   0  0  0  0  0  0  0  0  0  0  0  0
   -0.6736   -0.1223   -1.4477 H   0  0  0  0  0  0  0  0  0  0  0  0
   -1.7106    1.1204   -0.6948 H   0  0  0  0  0  0  0  0  0  0  0  0
   -0.5123    0.6531    1.4855 H   0  0  0  0  0  0  0  0  0  0  0  0
    0.3546   -1.5381    0.9131 H   0  0  0  0  0  0  0  0  0  0  0  0
    1.6779   -0.4378    1.3965 H   0  0  0  0  0  0  0  0  0  0  0  0
    2.1289   -1.6609   -0.5685 H   0  0  0  0  0  0  0  0  0  0  0  0
    1.3892    1.8480    0.5840 H   0  0  0  0  0  0  0  0  0  0  0  0
   -2.6484   -1.0413   -0.6199 H   0  0  0  0  0  0  0  0  0  0  0  0
  1  2  1  0  0  0  0
  2  3  1  0  0  0  0
  3  4  1  0  0  0  0
  2  5  1  0  0  0  0
  1  6  1  0  0  0  0
  1  7  1  0  0  0  0
  1  8  1  0  0  0  0
  2  9  1  0  0  0  0
  3 10  1  0  0  0  0
  3 11  1  0  0  0  0
  4 12  1  0  0  0  0
  5 13  1  0  0  0  0
  6 14  1  0  0  0  0
M  END
