 xtb: 6.7.1 (edcfbbe)
          04112511173D

 35 35  0     0  0            999 V2000
   -0.3005   -2.7619   -0.1790 C   0  0  0  0  0  0  0  0  0  0  0  0
    0.4980   -1.5045   -0.0520 C   0  0  0  0  0  0  0  0  0  0  0  0
    1.8643   -1.4336   -0.3684 C   0  0  0  0  0  0  0  0  0  0  0  0
    2.5584   -0.3176   -0.2425 N   0  0  0  0  0  0  0  0  0  0  0  0
    1.9295    0.7832    0.1994 C   0  0  0  0  0  0  0  0  0  0  0  0
    0.6161    0.8252    0.4975 N   0  0  0  0  0  0  0  0  0  0  0  0
   -0.0536   -0.2992    0.3606 C   0  0  0  0  0  0  0  0  0  0  0  0
   -1.4004   -0.2150    0.7079 O   0  0  0  0  0  0  0  0  0  0  0  0
   -2.2745   -0.0632   -0.3289 C   0  0  0  0  0  0  0  0  0  0  0  0
   -1.9112   -0.0785   -1.4962 O   0  0  0  0  0  0  0  0  0  0  0  0
   -3.5357    0.0867    0.0775 N   0  0  0  0  0  0  0  0  0  0  0  0
   -4.5956    0.2387   -0.8968 C   0  0  0  0  0  0  0  0  0  0  0  0
   -3.9467    0.1091    1.4648 C   0  0  0  0  0  0  0  0  0  0  0  0
    2.6450    1.9016    0.3513 N   0  0  0  0  0  0  0  0  0  0  0  0
    2.0522    3.1370    0.8009 C   0  0  0  0  0  0  0  0  0  0  0  0
    4.0521    1.9536    0.0359 C   0  0  0  0  0  0  0  0  0  0  0  0
    2.6044   -2.6300   -0.8685 C   0  0  0  0  0  0  0  0  0  0  0  0
    0.2531   -3.6084    0.2199 H   0  0  0  0  0  0  0  0  0  0  0  0
   -1.2402   -2.6669    0.3606 H   0  0  0  0  0  0  0  0  0  0  0  0
   -0.5265   -2.9575   -1.2277 H   0  0  0  0  0  0  0  0  0  0  0  0
   -5.3247   -0.5624   -0.7745 H   0  0  0  0  0  0  0  0  0  0  0  0
   -4.1611    0.1906   -1.8923 H   0  0  0  0  0  0  0  0  0  0  0  0
   -5.0880    1.2014   -0.7591 H   0  0  0  0  0  0  0  0  0  0  0  0
   -4.5121    1.0213    1.6552 H   0  0  0  0  0  0  0  0  0  0  0  0
   -3.0735    0.0832    2.1086 H   0  0  0  0  0  0  0  0  0  0  0  0
   -4.5804   -0.7541    1.6737 H   0  0  0  0  0  0  0  0  0  0  0  0
    2.5534    3.4764    1.7088 H   0  0  0  0  0  0  0  0  0  0  0  0
    0.9994    2.9691    1.0040 H   0  0  0  0  0  0  0  0  0  0  0  0
    2.1583    3.9020    0.0295 H   0  0  0  0  0  0  0  0  0  0  0  0
    4.6136    2.2669    0.9172 H   0  0  0  0  0  0  0  0  0  0  0  0
    4.2254    2.6707   -0.7685 H   0  0  0  0  0  0  0  0  0  0  0  0
    4.3778    0.9670   -0.2772 H   0  0  0  0  0  0  0  0  0  0  0  0
    3.6216   -2.3465   -1.1171 H   0  0  0  0  0  0  0  0  0  0  0  0
    2.6216   -3.4029   -0.1028 H   0  0  0  0  0  0  0  0  0  0  0  0
    2.1076   -3.0334   -1.7476 H   0  0  0  0  0  0  0  0  0  0  0  0
  1  2  1  0  0  0  0
  2  3  4  0  0  0  0
  3  4  4  0  0  0  0
  4  5  4  0  0  0  0
  5  6  4  0  0  0  0
  2  7  4  0  0  0  0
  6  7  4  0  0  0  0
  7  8  1  0  0  0  0
  8  9  1  0  0  0  0
  9 10  2  0  0  0  0
  9 11  4  0  0  0  0
 11 12  1  0  0  0  0
 11 13  1  0  0  0  0
  5 14  4  0  0  0  0
 14 15  1  0  0  0  0
 14 16  1  0  0  0  0
  3 17  1  0  0  0  0
  1 18  1  0  0  0  0
  1 19  1  0  0  0  0
  1 20  1  0  0  0  0
 12 21  1  0  0  0  0
 12 22  1  0  0  0  0
 12 23  1  0  0  0  0
 13 24  1  0  0  0  0
 13 25  1  0  0  0  0
 13 26  1  0  0  0  0
 15 27  1  0  0  0  0
 15 28  1  0  0  0  0
 15 29  1  0  0  0  0
 16 30  1  0  0  0  0
 16 31  1  0  0  0  0
 16 32  1  0  0  0  0
 17 33  1  0  0  0  0
 17 34  1  0  0  0  0
 17 35  1  0  0  0  0
M  END
