26
 xtb: 6.7.1 (edcfbbe)
C           -1.31862799293042       -1.31240901168573        0.62365521954021
C           -1.08941564487624       -0.31279774321289       -0.51392662886658
C           -2.40682316449874        0.39606288888283       -0.84880420112082
C            0.04205393542388        0.71810731244691       -0.27322117491101
C           -0.29081899577595        1.72555538577966        0.83110655632822
C            1.47344811024569        0.14191574985953       -0.09064714522016
C            1.81145366562929       -0.39521221378258        1.30490911722439
C            1.82312170675178       -0.89426407722285       -1.15957264138285
H           -0.48774864026312       -2.01388265050594        0.72860181757572
H           -1.46242553560674       -0.80763344540942        1.58566307113344
H           -2.22085364519939       -1.90232028016764        0.42497349062776
H           -0.80373387254894       -0.88993387095995       -1.40338780956154
H           -2.83568868724303        0.88259199618707        0.03437987154080
H           -3.14553278532990       -0.32447068465177       -1.21654817005469
H           -2.26797477997846        1.16085709693597       -1.62180348515167
H            0.09586895767824        1.28929046668242       -1.21298299596517
H           -1.14631593812316        2.35034478077636        0.55806581771831
H            0.55996158454037        2.39392949436424        1.00633896870252
H           -0.52698660363129        1.23722307504370        1.78212875885842
H            2.13669437637047        1.00547811036338       -0.24925962722807
H            1.58787836331584        0.33272861363283        2.09067066066361
H            1.27767647868302       -1.31993743175451        1.54024536942590
H            2.88353689505303       -0.61668049326884        1.36122888388919
H            1.26804680436363       -1.82723307696803       -1.01078431976781
H            2.89075860033124       -1.13821018594128       -1.12302085205511
H            1.59785063361101       -0.52358599391668       -2.16624327116445
