 xtb: 6.7.1 (edcfbbe)
          04112512013D

 21 21  0     0  0            999 V2000
   -3.2881    1.0324   -0.6373 C   0  0  0  0  0  0  0  0  0  0  0  0
   -1.9686    0.7833    0.0170 C   0  0  0  0  0  0  0  0  0  0  0  0
   -1.7861    0.5914    1.1989 O   0  0  0  0  0  0  0  0  0  0  0  0
   -0.9760    0.8319   -0.8842 O   0  0  0  0  0  0  0  0  0  0  0  0
    0.3402    0.6239   -0.4944 C   0  0  0  0  0  0  0  0  0  0  0  0
    1.2608    1.5995   -0.8491 C   0  0  0  0  0  0  0  0  0  0  0  0
    2.5903    1.4613   -0.4933 C   0  0  0  0  0  0  0  0  0  0  0  0
    3.0037    0.3610    0.2426 C   0  0  0  0  0  0  0  0  0  0  0  0
    2.0886   -0.6095    0.5978 C   0  0  0  0  0  0  0  0  0  0  0  0
    0.7498   -0.5046    0.2194 C   0  0  0  0  0  0  0  0  0  0  0  0
   -0.1533   -1.6186    0.5890 C   0  0  0  0  0  0  0  0  0  0  0  0
    0.0316   -2.3327    1.5538 O   0  0  0  0  0  0  0  0  0  0  0  0
   -1.1543   -1.8249   -0.2589 O   0  0  0  0  0  0  0  0  0  0  0  0
   -4.0886    0.8340    0.0673 H   0  0  0  0  0  0  0  0  0  0  0  0
   -3.3773    0.4043   -1.5188 H   0  0  0  0  0  0  0  0  0  0  0  0
   -3.3289    2.0712   -0.9568 H   0  0  0  0  0  0  0  0  0  0  0  0
    0.9143    2.4580   -1.4015 H   0  0  0  0  0  0  0  0  0  0  0  0
    3.2997    2.2208   -0.7799 H   0  0  0  0  0  0  0  0  0  0  0  0
    4.0354    0.2593    0.5374 H   0  0  0  0  0  0  0  0  0  0  0  0
    2.3826   -1.4784    1.1663 H   0  0  0  0  0  0  0  0  0  0  0  0
   -1.6806   -2.6091   -0.0062 H   0  0  0  0  0  0  0  0  0  0  0  0
  1  2  1  0  0  0  0
  2  3  2  0  0  0  0
  2  4  1  0  0  0  0
  4  5  1  0  0  0  0
  5  6  4  0  0  0  0
  6  7  4  0  0  0  0
  7  8  4  0  0  0  0
  8  9  4  0  0  0  0
  5 10  4  0  0  0  0
  9 10  4  0  0  0  0
 10 11  1  0  0  0  0
 11 12  2  0  0  0  0
 11 13  1  0  0  0  0
  1 14  1  0  0  0  0
  1 15  1  0  0  0  0
  1 16  1  0  0  0  0
  6 17  1  0  0  0  0
  7 18  1  0  0  0  0
  8 19  1  0  0  0  0
  9 20  1  0  0  0  0
 13 21  1  0  0  0  0
M  END
