13
 xtb: 6.7.1 (edcfbbe)
C           -2.41139336460853       -0.05372240468816        0.15914665879094
O           -1.16915070773980        0.16102429575471       -0.51165405433627
C           -0.06146560631957       -0.10630446450258        0.34661016178607
C            1.20037994062183        0.14712104130709       -0.45084575932701
O            2.30973601682531       -0.13321253208784        0.41763046477130
H           -2.50332749329804       -1.09638946190503        0.49455140707145
H           -3.20777368399868        0.16675151940289       -0.55533276436959
H           -2.50991416763375        0.61109165958071        1.02893094223377
H           -0.09387364970376        0.55132314798370        1.22962660362668
H           -0.08902087253864       -1.15141141165925        0.69331840379150
H            1.22465871422146        1.19217024723980       -0.78870702506487
H            1.22111131103401       -0.50727715552569       -1.33308198124809
H            3.11672164018094        0.02237854065546       -0.08811491046956
