  18
 
 C         -2.9023892264        0.0000643108       -0.0014735671
 C         -1.4033395206        0.0000841662        0.0123204685
 C         -0.6900955344       -1.1917343899        0.0097159515
 C          0.6924083885       -1.1917298469        0.0097430726
 C          1.4055632327        0.0001390933        0.0123879289
 C          0.6923562291        1.1919649602        0.0099308110
 C         -0.6901555470        1.1919525380        0.0099030797
 C          2.9047752182        0.0001398054       -0.0013570410
 H         -3.2666660130        0.0002709682       -1.0298014502
 H         -3.2944502613       -0.8853314997        0.4938946119
 H         -3.2944769020        0.8852234199        0.4942813395
 H         -1.2244659687       -2.1317789519        0.0116287809
 H          1.2268287433       -2.1317374293        0.0117071968
 H          1.2267120557        2.1320243376        0.0120876611
 H         -1.2245700527        2.1319609466        0.0120042441
 H          3.2689248290       -0.0006361419       -1.0296792826
 H          3.2967641814        0.8857720672        0.4935894473
 H          3.2967522705       -0.8847726693        0.4948907875
          18
        -22.22096475
 C         -2.9030169645       -0.0067349904        0.0044678258
 C         -1.4039483511        0.0035736593       -0.0077832854
 C         -0.6924659733        1.1944063782       -0.0041764451
 C          0.6916117462        1.1948973248        0.0025915441
 C          1.4039856442        0.0047191610        0.0066421888
 C          0.6909165797       -1.1888727265        0.0025716193
 C         -0.6901233995       -1.1894541769       -0.0043515015
 C          2.9030274853       -0.0065204037       -0.0010975879
 H         -3.3013239480        0.9654186345       -0.2757289928
 H         -3.2888929628       -0.7570844844       -0.6830424262
 H         -3.2677736652       -0.2501890059        1.0029657798
 H         -1.2256088423        2.1349246100       -0.0070461861
 H          1.2238376376        2.1359983146        0.0043220173
 H          1.2275930249       -2.1274200692        0.0050302153
 H         -1.2258836982       -2.1285299080       -0.0066693026
 H          3.3010476908        0.9805608465        0.2211162158
 H          3.2856504726       -0.7132609597        0.7333110512
 H          3.2715119859       -0.3120886474       -0.9807250895
