 18

C      1.931000    -1.013000    -1.603000
C      1.885000    -1.036000    -0.112000
C      2.921000    -1.631000     0.608000
C      2.878000    -1.652000     2.002000
C      1.800000    -1.079000     2.676000
C      0.764000    -0.484000     1.955000
C      0.807000    -0.463000     0.561000
C      1.753000    -1.104000     4.166000
H      2.438000    -0.108000    -1.948000
H      2.463000    -1.888000    -1.991000
H      0.920000    -1.036000    -2.025000
H      3.765000    -2.080000     0.092000
H      3.689000    -2.118000     2.555000
H     -0.081000    -0.036000     2.472000
H     -0.005000     0.002000     0.008000
H      2.238000    -0.211000     4.579000
H      0.719000    -1.138000     4.532000
H      2.260000    -1.991000     4.566000
