  18
 
 C          1.9310000000       -1.0130000000       -1.6030000000
 C          1.8850000000       -1.0360000000       -0.1120000000
 C          2.9210000000       -1.6310000000        0.6080000000
 C          2.8780000000       -1.6520000000        2.0020000000
 C          1.8000000000       -1.0790000000        2.6760000000
 C          0.7640000000       -0.4840000000        1.9550000000
 C          0.8070000000       -0.4630000000        0.5610000000
 C          1.7530000000       -1.1040000000        4.1660000000
 H          2.4380000000       -0.1080000000       -1.9480000000
 H          2.4630000000       -1.8880000000       -1.9910000000
 H          0.9200000000       -1.0360000000       -2.0250000000
 H          3.7650000000       -2.0800000000        0.0920000000
 H          3.6890000000       -2.1180000000        2.5550000000
 H         -0.0810000000       -0.0360000000        2.4720000000
 H         -0.0050000000        0.0020000000        0.0080000000
 H          2.2380000000       -0.2110000000        4.5790000000
 H          0.7190000000       -1.1380000000        4.5320000000
 H          2.2600000000       -1.9910000000        4.5660000000
