21
 xtb: 6.7.1 (edcfbbe)
C           -2.43950273226398       -0.31997645179897       -0.89241207660906
C           -1.74002004388070        0.73150518927127       -0.03084979664850
C           -0.56862769835490        0.23579237630037        0.82851269596008
C            0.78060099353857       -0.07000456192564        0.15278417940310
C            1.33322193585285        1.13795533401465       -0.58835410108260
C            0.75166299257022       -1.29757537560486       -0.75310922700346
O            1.74039693109184       -0.32529565260198        1.22644109618458
H           -3.37672306185004        0.07940048038761       -1.29432834529973
H           -2.68369202535134       -1.21022409374038       -0.30144344282790
H           -1.83438478237383       -0.63954689731225       -1.74395221623926
H           -1.41622022422717        1.57177204089619       -0.65696540604536
H           -2.48163451372995        1.14584046289555        0.66275850402496
H           -0.35693987084220        1.00283858883774        1.58405574235823
H           -0.88347224029108       -0.66620055820279        1.37363339460594
H            0.71178346075341        1.37838345431105       -1.45478850301920
H            2.34617031251684        0.92844125369196       -0.94695925098313
H            1.36764814860968        2.01435464445499        0.06742626273281
H            1.77233645926353       -1.55239813693282       -1.05723210079885
H            0.16795737311590       -1.11486175290143       -1.65783386205302
H            0.31784396227411       -2.15745597139648       -0.23015434908453
H            1.41128279781785       -1.08784485373991        1.72233034199233
