 xtb: 6.7.1 (edcfbbe)
          04112511473D

 15 14  0     0  0            999 V2000
   -2.1656    0.6548    0.5614 C   0  0  0  0  0  0  0  0  0  0  0  0
   -1.3356    0.3016   -0.6687 C   0  0  0  0  0  0  0  0  0  0  0  0
   -0.5403   -0.9945   -0.5076 C   0  0  0  0  0  0  0  0  0  0  0  0
    0.5725   -0.8954    0.5468 C   0  0  0  0  0  0  0  0  0  0  0  0
    1.5563    0.0865    0.1903 C   0  0  0  0  0  0  0  0  0  0  0  0
    2.3465    0.8647   -0.0991 N   0  0  0  0  0  0  0  0  0  0  0  0
   -2.8104   -0.1766    0.8376 H   0  0  0  0  0  0  0  0  0  0  0  0
   -1.5317    0.9023    1.4093 H   0  0  0  0  0  0  0  0  0  0  0  0
   -2.7915    1.5187    0.3527 H   0  0  0  0  0  0  0  0  0  0  0  0
   -2.0046    0.1866   -1.5240 H   0  0  0  0  0  0  0  0  0  0  0  0
   -0.6492    1.1214   -0.8947 H   0  0  0  0  0  0  0  0  0  0  0  0
   -0.0932   -1.2586   -1.4683 H   0  0  0  0  0  0  0  0  0  0  0  0
   -1.2160   -1.8001   -0.2155 H   0  0  0  0  0  0  0  0  0  0  0  0
    0.1561   -0.6263    1.5197 H   0  0  0  0  0  0  0  0  0  0  0  0
    1.0812   -1.8578    0.6433 H   0  0  0  0  0  0  0  0  0  0  0  0
  1  2  1  0  0  0  0
  2  3  1  0  0  0  0
  3  4  1  0  0  0  0
  4  5  1  0  0  0  0
  5  6  3  0  0  0  0
  1  7  1  0  0  0  0
  1  8  1  0  0  0  0
  1  9  1  0  0  0  0
  2 10  1  0  0  0  0
  2 11  1  0  0  0  0
  3 12  1  0  0  0  0
  3 13  1  0  0  0  0
  4 14  1  0  0  0  0
  4 15  1  0  0  0  0
M  END
