 16

C      1.892000    -0.609000    -4.858000
C      1.038000     0.383000    -4.085000
C      1.148000     0.161000    -2.579000
C      0.303000     1.140000    -1.783000
O     -0.387000     2.010000    -2.311000
C      0.352000     0.991000    -0.284000
H      1.807000    -0.442000    -5.936000
H      1.587000    -1.638000    -4.645000
H      2.945000    -0.501000    -4.579000
H     -0.007000     0.285000    -4.402000
H      1.351000     1.403000    -4.336000
H      0.816000    -0.853000    -2.326000
H      2.189000     0.277000    -2.259000
H      1.158000     1.609000     0.119000
H      0.514000    -0.058000    -0.025000
H     -0.597000     1.320000     0.151000
