 28

C     -0.912000     4.898000     0.778000
C     -1.458000     3.480000     0.853000
C     -0.503000     2.480000     0.200000
C     -1.008000     1.035000     0.249000
C     -0.052000     0.034000    -0.404000
C     -0.606000    -1.391000    -0.327000
C      0.350000    -2.394000    -0.981000
C     -0.175000    -3.825000    -0.919000
C      0.742000    -4.844000    -1.555000
O      1.818000    -4.587000    -2.083000
H     -1.599000     5.609000     1.247000
H      0.049000     4.962000     1.298000
H     -0.757000     5.204000    -0.262000
H     -2.433000     3.444000     0.355000
H     -1.618000     3.223000     1.905000
H      0.483000     2.542000     0.677000
H     -0.361000     2.756000    -0.853000
H     -1.976000     0.994000    -0.266000
H     -1.192000     0.746000     1.291000
H      0.107000     0.309000    -1.454000
H      0.923000     0.066000     0.093000
H     -0.773000    -1.658000     0.723000
H     -1.580000    -1.434000    -0.829000
H      0.482000    -2.119000    -2.034000
H      1.337000    -2.331000    -0.508000
H     -0.353000    -4.129000     0.118000
H     -1.129000    -3.887000    -1.454000
H      0.364000    -5.881000    -1.537000
