  14
 
 C         -2.8560315367        0.5180777989        0.0021936038
 C         -1.7151328892       -0.4909940789       -0.0000674801
 C         -0.3648377525        0.2099042855        0.0005000127
 O          0.6698012883       -0.7827144510       -0.0000944188
 C          1.9105563853       -0.3382814994        0.0001955231
 O          2.2604595049        0.8049371047        0.0005369816
 H         -3.8129840264        0.0034837124        0.0001054160
 H         -2.8065938078        1.1499210708        0.8857786936
 H         -2.8055013117        1.1550557299       -0.8776347585
 H         -1.7804243556       -1.1286903240       -0.8828928958
 H         -1.7795692991       -1.1316274411        0.8806891910
 H         -0.2460480330        0.8435059104       -0.8855269154
 H         -0.2461767373        0.8422581160        0.8874353711
 H          2.5980141746       -1.2018270849       -0.0007314091
          14
        -20.77619728
 C         -2.6743284682       -0.4132790995        0.0970919746
 C         -1.3310802986       -0.0530391731       -0.5229354929
 C         -0.3953063994        0.5605197854        0.5153722845
 O          0.8435333702        0.9717218466       -0.0751132565
 C          1.7856545213        0.0565100105       -0.1954788253
 O          1.7312314607       -1.0864531262        0.1506247317
 H         -3.3288285954       -0.8484181990       -0.6532394976
 H         -2.5424712328       -1.1354740858        0.8991399545
 H         -3.1580663008        0.4712067192        0.5054157494
 H         -1.4727878912        0.6611837393       -1.3366300704
 H         -0.8603706052       -0.9483919829       -0.9332855368
 H         -0.8271158047        1.4679376756        0.9425620609
 H         -0.1867829468       -0.1637438867        1.3095750824
 H          2.6679215134        0.5209361814       -0.6696148700
