18
 xtb: 6.7.1 (edcfbbe)
C            1.85511996417154       -1.37198821398899        0.04689608027300
C            0.81445269211156       -0.27903516891594        0.29370453565913
C            1.46944894213335        1.10182481705672        0.24896264531512
C           -0.32382962756495       -0.40973550382918       -0.72873367364805
C           -1.45839852974902        0.58357992690631       -0.57608069815268
O           -2.05559045455625        0.41353258169103        0.72845595148918
H            2.31982193594789       -1.24563988390028       -0.93883871365339
H            1.40156585827999       -2.36867278240250        0.07950253518373
H            2.64982835731687       -1.33724050403838        0.79968109249249
H            0.39538822876791       -0.42940165029526        1.29736114446325
H            2.31586714760329        1.15100002144360        0.94237302577171
H            0.77110017391644        1.89860737765894        0.52393294314919
H            1.84720352438233        1.31645318807630       -0.75865096300346
H           -0.73848943082147       -1.42543169289614       -0.67835414961382
H            0.08934373036836       -0.28623357554172       -1.73967368842320
H           -1.09708133082520        1.61489388655002       -0.68988496153824
H           -2.21094504735997        0.40397276352683       -1.35616989099091
H           -2.78633758734561        1.04046068455370        0.79467943802627
