21
 xtb: 6.7.1 (edcfbbe)
C            2.08718682414038        0.08821143614261       -1.15387059035273
C            1.68069390877203       -0.52464245264845        0.18484504850672
C            0.29088383919610       -0.15932116762620        0.71306484309983
H            0.16227734172430       -0.70292442721011        1.65684936283856
C           -0.88505427887607       -0.54941078733699       -0.21463364893676
C           -2.11771471960991       -0.91853440038737        0.61418131043646
C           -1.25849049773275        0.54127610812039       -1.22450603123147
O            0.22505585500663        1.23103703961459        1.10984952955062
H            2.00283069485195        1.18092607686488       -1.14621616263817
H            1.47964125436397       -0.29553980553074       -1.97879385476205
H            3.13156721415909       -0.15457148951164       -1.37465934815237
H            1.72511945232034       -1.61875988109995        0.11179605747076
H            2.40751903069183       -0.23460459052060        0.95392631626268
H           -0.56362231100633       -1.44065123167894       -0.77034906470201
H           -1.91634760337915       -1.77136990415655        1.27100477243745
H           -2.42536675340273       -0.07252000758088        1.24076604188427
H           -2.96273048172634       -1.18010750130052       -0.03193637354716
H           -1.98178180983019        0.14671349958194       -1.94550074134074
H           -0.40091753867042        0.91716683315283       -1.78896894009133
H           -1.73123620991485        1.39156816388934       -0.72001054778246
H            0.33473623061267        1.76721485334469        0.31310082739112
