 xtb: 6.7.1 (edcfbbe)
          04112511013D

 20 19  0     0  0            999 V2000
   -1.8856   -1.2253   -0.2782 C   0  0  0  0  0  0  0  0  0  0  0  0
   -1.2053   -0.0997    0.4930 C   0  0  0  0  0  0  0  0  0  0  0  0
   -0.1445    0.6490   -0.3228 C   0  0  0  0  0  0  0  0  0  0  0  0
    0.3605    1.8657    0.4529 C   0  0  0  0  0  0  0  0  0  0  0  0
    1.0244   -0.2423   -0.7707 C   0  0  0  0  0  0  0  0  0  0  0  0
    1.8227   -0.8898    0.3693 C   0  0  0  0  0  0  0  0  0  0  0  0
   -2.2890   -0.8548   -1.2182 H   0  0  0  0  0  0  0  0  0  0  0  0
   -1.1870   -2.0289   -0.4947 H   0  0  0  0  0  0  0  0  0  0  0  0
   -2.7040   -1.6383    0.3071 H   0  0  0  0  0  0  0  0  0  0  0  0
   -0.7578   -0.5066    1.4012 H   0  0  0  0  0  0  0  0  0  0  0  0
   -1.9650    0.6228    0.8016 H   0  0  0  0  0  0  0  0  0  0  0  0
   -0.6297    1.0139   -1.2370 H   0  0  0  0  0  0  0  0  0  0  0  0
    1.0915    2.4146   -0.1362 H   0  0  0  0  0  0  0  0  0  0  0  0
    0.8292    1.5662    1.3866 H   0  0  0  0  0  0  0  0  0  0  0  0
   -0.4639    2.5355    0.6871 H   0  0  0  0  0  0  0  0  0  0  0  0
    0.6323   -1.0175   -1.4298 H   0  0  0  0  0  0  0  0  0  0  0  0
    1.6919    0.3745   -1.3762 H   0  0  0  0  0  0  0  0  0  0  0  0
    1.4186   -0.6218    1.3408 H   0  0  0  0  0  0  0  0  0  0  0  0
    2.8618   -0.5725    0.3472 H   0  0  0  0  0  0  0  0  0  0  0  0
    1.8031   -1.9739    0.2930 H   0  0  0  0  0  0  0  0  0  0  0  0
  1  2  1  0  0  0  0
  2  3  1  0  0  0  0
  3  4  1  0  0  0  0
  3  5  1  0  0  0  0
  5  6  1  0  0  0  0
  1  7  1  0  0  0  0
  1  8  1  0  0  0  0
  1  9  1  0  0  0  0
  2 10  1  0  0  0  0
  2 11  1  0  0  0  0
  3 12  1  0  0  0  0
  4 13  1  0  0  0  0
  4 14  1  0  0  0  0
  4 15  1  0  0  0  0
  5 16  1  0  0  0  0
  5 17  1  0  0  0  0
  6 18  1  0  0  0  0
  6 19  1  0  0  0  0
  6 20  1  0  0  0  0
M  END
