  11
 
 C         -1.4395730969       -0.9762213540       -0.0055897068
 S         -0.0022783726        0.1305841588        0.0073828076
 O          0.0092271368        0.8551335129        1.2469186196
 O          0.0061661322        0.8853838218       -1.2141689786
 C          1.4046543073       -1.0144976816       -0.0091335479
 H         -1.4404187665       -1.5211112693       -0.9401324221
 H         -1.3672288503       -1.6404134325        0.8453780425
 H         -2.3279882825       -0.3620579512        0.0726975191
 H          2.3107200280       -0.4215885925       -0.0141297880
 H          1.3596444124       -1.6233253952        0.8839841927
 H          1.3442366977       -1.6149915245       -0.9069573036
          11
        -18.68703077
 C         -1.4226345783       -1.0045807316       -0.0000925138
 S         -0.0000011409        0.1216625892        0.0000342514
 O          0.0005200313        0.8594226907        1.2316054906
 O         -0.0005141505        0.8609883707       -1.2306272446
 C          1.4226061752       -1.0045932007       -0.0009949230
 H         -2.3202649870       -0.3988967811       -0.0015991832
 H         -1.3775600380       -1.6109134372       -0.8947886574
 H         -1.3791604627       -1.6086332605        0.8962058307
 H          1.3787719573       -1.6086886070       -0.8973313723
 H          2.3201758879       -0.3987924483       -0.0000392767
 H          1.3783190577       -1.6107648642        0.8938933237
