 11

C      1.062000     0.238000     0.093000
S      1.275000     1.269000     1.523000
O      0.947000     0.479000     2.693000
O      0.611000     2.532000     1.263000
C      3.025000     1.569000     1.542000
H      1.306000     0.825000    -0.794000
H      1.732000    -0.618000     0.182000
H      0.022000    -0.092000     0.058000
H      3.239000     2.201000     2.399000
H      3.521000     0.607000     1.627000
H      3.282000     2.066000     0.611000
