  22
 
 C         -2.3100000000       -1.4080000000        1.8830000000
 C         -1.1040000000       -0.4940000000        1.7310000000
 C         -1.2660000000        0.8540000000        2.4370000000
 C         -0.0500000000        1.7700000000        2.2800000000
 C         -0.2650000000        3.1030000000        3.0050000000
 C          0.9300000000        4.0420000000        2.8690000000
 N          0.7290000000        5.2930000000        3.5480000000
 H         -2.1510000000       -2.3590000000        1.3640000000
 H         -2.5240000000       -1.6190000000        2.9350000000
 H         -3.1980000000       -0.9330000000        1.4540000000
 H         -0.8980000000       -0.3360000000        0.6660000000
 H         -0.2280000000       -1.0020000000        2.1510000000
 H         -2.1620000000        1.3610000000        2.0600000000
 H         -1.4360000000        0.6630000000        3.5040000000
 H          0.1390000000        1.9590000000        1.2180000000
 H          0.8390000000        1.2730000000        2.6860000000
 H         -1.1670000000        3.5910000000        2.6150000000
 H         -0.4370000000        2.9100000000        4.0710000000
 H          1.1400000000        4.2620000000        1.8180000000
 H          1.8200000000        3.5810000000        3.3080000000
 H          0.9150000000        5.3510000000        4.5370000000
 H          0.2190000000        6.0280000000        3.0840000000
