 xtb: 6.7.1 (edcfbbe)
          04112511413D

 14 13  0     0  0            999 V2000
   -1.0573   -0.5289   -0.2395 C   0  0  0  0  0  0  0  0  0  0  0  0
    0.0103    0.2185    0.5725 C   0  0  0  0  0  0  0  0  0  0  0  0
    1.3245   -0.5826    0.6071 C   0  0  0  0  0  0  0  0  0  0  0  0
    1.8465   -0.7920   -0.6825 O   0  0  0  0  0  0  0  0  0  0  0  0
    0.2247    1.4754   -0.0408 O   0  0  0  0  0  0  0  0  0  0  0  0
   -2.3302    0.0615   -0.1654 O   0  0  0  0  0  0  0  0  0  0  0  0
   -1.0901   -1.5733    0.0948 H   0  0  0  0  0  0  0  0  0  0  0  0
   -0.7815   -0.5051   -1.2950 H   0  0  0  0  0  0  0  0  0  0  0  0
   -0.3504    0.3490    1.6026 H   0  0  0  0  0  0  0  0  0  0  0  0
    1.1554   -1.5701    1.0387 H   0  0  0  0  0  0  0  0  0  0  0  0
    2.0586   -0.0475    1.2269 H   0  0  0  0  0  0  0  0  0  0  0  0
    1.8270    0.0572   -1.1512 H   0  0  0  0  0  0  0  0  0  0  0  0
    0.6889    2.0653    0.5690 H   0  0  0  0  0  0  0  0  0  0  0  0
   -2.6339    0.0618    0.7536 H   0  0  0  0  0  0  0  0  0  0  0  0
  1  2  1  0  0  0  0
  2  3  1  0  0  0  0
  3  4  1  0  0  0  0
  2  5  1  0  0  0  0
  1  6  1  0  0  0  0
  1  7  1  0  0  0  0
  1  8  1  0  0  0  0
  2  9  1  0  0  0  0
  3 10  1  0  0  0  0
  3 11  1  0  0  0  0
  4 12  1  0  0  0  0
  5 13  1  0  0  0  0
  6 14  1  0  0  0  0
M  END
