18
 xtb: 6.7.1 (edcfbbe)
C           -2.36037840263886        0.73989150689332       -0.00027057092918
C           -0.84215252742921        0.89721639284093       -0.04342593734788
C           -0.08016172383464       -0.32733405504264        0.48467468049983
H           -0.44917215489166       -0.53982241168384        1.49919064583276
C           -0.30642002068568       -1.57163598730731       -0.37829666744338
C            1.40293605099639       -0.02973096535589        0.65480472489184
O            1.99327721517788        0.25080597813340       -0.63257653655870
H           -2.70131291214826        0.49803810835846        1.01334936138059
H           -2.85773288053697        1.66580551385528       -0.30722591552756
H           -2.70624490032927       -0.05492827183810       -0.66873126339754
H           -0.55329742748019        1.77204153443335        0.55392102378815
H           -0.52641395390328        1.10241339248670       -1.07404838893180
H            0.30874263412347       -2.40755024693466       -0.02743203526168
H           -0.04852085008275       -1.37706615692963       -1.42518337172184
H           -1.35138309764794       -1.89327363618300       -0.34669953823731
H            1.90496996667864       -0.89444652872751        1.11280871724247
H            1.53423487026137        0.83561678267022        1.32067597490725
H            2.92516366194260        0.45120559516910       -0.48279419136505
