 xtb: 6.7.1 (edcfbbe)
          04112512243D

 23 22  0     0  0            999 V2000
    2.1285    1.3330   -0.0353 C   0  0  0  0  0  0  0  0  0  0  0  0
    1.2527    0.2561    0.5975 C   0  0  0  0  0  0  0  0  0  0  0  0
    0.3480   -0.4564   -0.4271 C   0  0  0  0  0  0  0  0  0  0  0  0
    0.6574   -0.1336   -1.4283 H   0  0  0  0  0  0  0  0  0  0  0  0
    0.5517   -1.9714   -0.3626 C   0  0  0  0  0  0  0  0  0  0  0  0
   -1.1475   -0.0932   -0.3048 C   0  0  0  0  0  0  0  0  0  0  0  0
   -1.7799   -0.5240    1.0178 C   0  0  0  0  0  0  0  0  0  0  0  0
   -1.3755    1.4010   -0.5331 C   0  0  0  0  0  0  0  0  0  0  0  0
    1.5196    2.1014   -0.5049 H   0  0  0  0  0  0  0  0  0  0  0  0
    2.7538    1.8051    0.7195 H   0  0  0  0  0  0  0  0  0  0  0  0
    2.7775    0.8992   -0.7932 H   0  0  0  0  0  0  0  0  0  0  0  0
    0.6514    0.7098    1.3852 H   0  0  0  0  0  0  0  0  0  0  0  0
    1.9015   -0.4795    1.0768 H   0  0  0  0  0  0  0  0  0  0  0  0
    1.5767   -2.2211   -0.6274 H   0  0  0  0  0  0  0  0  0  0  0  0
    0.3588   -2.3489    0.6382 H   0  0  0  0  0  0  0  0  0  0  0  0
   -0.1134   -2.4787   -1.0586 H   0  0  0  0  0  0  0  0  0  0  0  0
   -1.6652   -0.6325   -1.1081 H   0  0  0  0  0  0  0  0  0  0  0  0
   -1.7265   -1.6015    1.1437 H   0  0  0  0  0  0  0  0  0  0  0  0
   -2.8283   -0.2341    1.0338 H   0  0  0  0  0  0  0  0  0  0  0  0
   -1.2876   -0.0523    1.8643 H   0  0  0  0  0  0  0  0  0  0  0  0
   -2.4411    1.6187   -0.5564 H   0  0  0  0  0  0  0  0  0  0  0  0
   -0.9429    1.7140   -1.4808 H   0  0  0  0  0  0  0  0  0  0  0  0
   -0.9281    1.9896    0.2635 H   0  0  0  0  0  0  0  0  0  0  0  0
  1  2  1  0  0  0  0
  2  3  1  0  0  0  0
  3  4  1  0  0  0  0
  3  5  1  0  0  0  0
  3  6  1  0  0  0  0
  6  7  1  0  0  0  0
  6  8  1  0  0  0  0
  1  9  1  0  0  0  0
  1 10  1  0  0  0  0
  1 11  1  0  0  0  0
  2 12  1  0  0  0  0
  2 13  1  0  0  0  0
  5 14  1  0  0  0  0
  5 15  1  0  0  0  0
  5 16  1  0  0  0  0
  6 17  1  0  0  0  0
  7 18  1  0  0  0  0
  7 19  1  0  0  0  0
  7 20  1  0  0  0  0
  8 21  1  0  0  0  0
  8 22  1  0  0  0  0
  8 23  1  0  0  0  0
M  END
