 xtb: 6.7.1 (edcfbbe)
          04112512423D

 17 16  0     0  0            999 V2000
   -2.4292    0.2746    0.9961 C   0  0  0  0  0  0  0  0  0  0  0  0
   -1.7847    0.6099   -0.3523 C   0  0  0  0  0  0  0  0  0  0  0  0
   -0.5280   -0.2040   -0.5182 C   0  0  0  0  0  0  0  0  0  0  0  0
   -0.4522   -1.2525   -1.1268 O   0  0  0  0  0  0  0  0  0  0  0  0
    0.4991    0.3460    0.1110 O   0  0  0  0  0  0  0  0  0  0  0  0
    1.7592   -0.3450    0.0769 C   0  0  0  0  0  0  0  0  0  0  0  0
    2.8127    0.5614    0.6834 C   0  0  0  0  0  0  0  0  0  0  0  0
   -2.6677   -0.7853    1.0471 H   0  0  0  0  0  0  0  0  0  0  0  0
   -1.7511    0.5213    1.8088 H   0  0  0  0  0  0  0  0  0  0  0  0
   -3.3450    0.8453    1.1157 H   0  0  0  0  0  0  0  0  0  0  0  0
   -1.5252    1.6671   -0.3840 H   0  0  0  0  0  0  0  0  0  0  0  0
   -2.4655    0.3633   -1.1660 H   0  0  0  0  0  0  0  0  0  0  0  0
    1.6550   -1.2786    0.6393 H   0  0  0  0  0  0  0  0  0  0  0  0
    1.9867   -0.5980   -0.9640 H   0  0  0  0  0  0  0  0  0  0  0  0
    2.8851    1.4824    0.1126 H   0  0  0  0  0  0  0  0  0  0  0  0
    2.5484    0.8044    1.7082 H   0  0  0  0  0  0  0  0  0  0  0  0
    3.7723    0.0553    0.6706 H   0  0  0  0  0  0  0  0  0  0  0  0
  1  2  1  0  0  0  0
  2  3  1  0  0  0  0
  3  4  2  0  0  0  0
  3  5  1  0  0  0  0
  5  6  1  0  0  0  0
  6  7  1  0  0  0  0
  1  8  1  0  0  0  0
  1  9  1  0  0  0  0
  1 10  1  0  0  0  0
  2 11  1  0  0  0  0
  2 12  1  0  0  0  0
  6 13  1  0  0  0  0
  6 14  1  0  0  0  0
  7 15  1  0  0  0  0
  7 16  1  0  0  0  0
  7 17  1  0  0  0  0
M  END
