  35
 
 C         -3.9849803216       -0.3775479410       -1.6963192993
 C         -2.9637104973        0.6010734221       -1.1203725448
 N         -2.2771179883        0.0162734809        0.0127314371
 C         -3.0984191952       -0.4659999152        1.1080279691
 C         -4.0341992454        0.6324448502        1.6098552901
 C         -0.9315711715       -0.0349702388        0.0740512541
 C         -0.2532794529       -1.1602505510        0.6137245274
 C          1.1316310296       -1.1876246948        0.7034512653
 C          1.9046808700       -0.1865159901        0.1624573985
 C          1.3051616077        0.9347063920       -0.4691209424
 C         -0.1150334739        1.0322702772       -0.4073272076
 N         -0.6978139550        2.3111605387       -0.6060187741
 O         -0.1548478891        3.1037842917       -1.3703013804
 O         -1.6851646983        2.6041097771        0.0424142089
 N          2.0506461128        1.8698430234       -1.0594219697
 C          3.3990975522       -0.2959052097        0.2017681195
 F          3.8302257395       -1.3808772650        0.8410520255
 F          3.9477243327       -0.3330183936       -1.0323254381
 F          3.9783915503        0.7634859526        0.8116452050
 N         -0.9074326977       -2.4042952936        0.8917152243
 O         -1.8966333293       -2.6850788028        0.2419091202
 O         -0.3962035800       -3.1371616199        1.7131212434
 H         -4.3150733468       -0.0145407864       -2.6658117974
 H         -3.5311674664       -1.3569926497       -1.8237601605
 H         -4.8558300557       -0.4773788968       -1.0562678516
 H         -3.4458306201        1.5449090892       -0.8427878184
 H         -2.2217116357        0.8135433996       -1.8939595761
 H         -3.6645127872       -1.3527741041        0.8077578943
 H         -2.4370956009       -0.7457233550        1.9303535956
 H         -4.4563494072        0.3274584960        2.5633668803
 H         -3.4808340207        1.5577271107        1.7498245496
 H         -4.8516523336        0.8152719496        0.9194906262
 H          1.5957018132       -2.0567641334        1.1476399088
 H          1.5746979604        2.6731974725       -1.4616584293
 H          3.0521767055        1.8744754399       -0.9796707708
          35
        -72.18664928
 C         -4.0576683738       -0.0417144659       -1.6779727410
 C         -3.1117833111       -0.8634342138       -0.8037817203
 N         -2.3035978241        0.0010839530        0.0362475669
 C         -3.0047750326        0.9529999570        0.8728253977
 C         -4.0208457728        0.2420881524        1.7643937520
 C         -0.9572842313       -0.0548104890        0.0039893343
 C         -0.2665927250       -1.2929469068       -0.0820628224
 C          1.1186833898       -1.3379832438       -0.1577984035
 C          1.8803624235       -0.2003421905       -0.0236378066
 C          1.2681880070        1.0680747197        0.1549562637
 C         -0.1527025463        1.1228578666        0.0613258773
 N         -0.7469582371        2.3795090105       -0.2244771796
 O         -0.2131941434        3.4028242179        0.1946179596
 O         -1.7342442806        2.4049352509       -0.9357237386
 N          2.0029098689        2.1612988495        0.3639851957
 C          3.3759189183       -0.3005943156       -0.0278599922
 F          3.9409272898        0.4662787075       -0.9882737780
 F          3.9274721450        0.1250087486        1.1296188222
 F          3.8188823285       -1.5399975957       -0.2253118631
 N         -0.9085908127       -2.5573887924        0.1220189633
 O         -1.8955965581       -2.5863590588        0.8327790091
 O         -0.3901491124       -3.5378455994       -0.3708838429
 H         -4.4698233154       -0.6837961277       -2.4514411017
 H         -4.8818427824        0.3723392128       -1.1055533871
 H         -3.5149369917        0.7736478779       -2.1496729064
 H         -2.4418528784       -1.4187530586       -1.4632203115
 H         -3.6691578130       -1.5838682191       -0.1976490519
 H         -2.2708486950        1.4435423615        1.5168377327
 H         -3.4935420102        1.7230042434        0.2657948213
 H         -4.3639138455        0.9325802453        2.5299355799
 H         -4.8845287384       -0.0983080006        1.2021496897
 H         -3.5577037533       -0.6154499704        2.2461313807
 H          1.5919365423       -2.3049911590       -0.2524099130
 H          1.5182717714        3.0516767557        0.4429562320
 H          3.0046466991        2.1468368315        0.2874032007
