 35

C      3.692000    -0.391000    -3.085000
C      2.560000     0.088000    -2.242000
N      1.932000    -1.016000    -1.528000
C      1.365000    -2.106000    -2.312000
C      0.292000    -1.600000    -3.203000
C      1.885000    -1.036000    -0.112000
C      2.921000    -1.631000     0.608000
C      2.878000    -1.652000     2.002000
C      1.800000    -1.079000     2.676000
C      0.764000    -0.484000     1.955000
C      0.807000    -0.463000     0.561000
N     -0.254000     0.145000    -0.176000
O     -0.170000     1.362000    -0.456000
O     -1.230000    -0.560000    -0.517000
N     -0.327000     0.094000     2.648000
C      1.782000    -1.117000     4.170000
F      2.872000    -1.735000     4.711000
F      1.749000     0.120000     4.745000
F      0.699000    -1.782000     4.662000
N      4.035000    -2.224000    -0.051000
O      5.037000    -1.515000    -0.300000
O      3.978000    -3.436000    -0.362000
H      4.161000     0.443000    -3.619000
H      4.447000    -0.898000    -2.474000
H      3.324000    -1.106000    -3.830000
H      1.794000     0.563000    -2.863000
H      2.908000     0.810000    -1.498000
H      2.184000    -2.540000    -2.883000
H      0.985000    -2.838000    -1.602000
H     -0.143000    -2.409000    -3.800000
H     -0.500000    -1.107000    -2.630000
H      0.719000    -0.863000    -3.894000
H      3.684000    -2.115000     2.568000
H     -1.039000     0.558000     2.126000
H     -0.312000     0.108000     3.645000
