  35
 
 C          3.6920000000       -0.3910000000       -3.0850000000
 C          2.5600000000        0.0880000000       -2.2420000000
 N          1.9320000000       -1.0160000000       -1.5280000000
 C          1.3650000000       -2.1060000000       -2.3120000000
 C          0.2920000000       -1.6000000000       -3.2030000000
 C          1.8850000000       -1.0360000000       -0.1120000000
 C          2.9210000000       -1.6310000000        0.6080000000
 C          2.8780000000       -1.6520000000        2.0020000000
 C          1.8000000000       -1.0790000000        2.6760000000
 C          0.7640000000       -0.4840000000        1.9550000000
 C          0.8070000000       -0.4630000000        0.5610000000
 N         -0.2540000000        0.1450000000       -0.1760000000
 O         -0.1700000000        1.3620000000       -0.4560000000
 O         -1.2300000000       -0.5600000000       -0.5170000000
 N         -0.3270000000        0.0940000000        2.6480000000
 C          1.7820000000       -1.1170000000        4.1700000000
 F          2.8720000000       -1.7350000000        4.7110000000
 F          1.7490000000        0.1200000000        4.7450000000
 F          0.6990000000       -1.7820000000        4.6620000000
 N          4.0350000000       -2.2240000000       -0.0510000000
 O          5.0370000000       -1.5150000000       -0.3000000000
 O          3.9780000000       -3.4360000000       -0.3620000000
 H          4.1610000000        0.4430000000       -3.6190000000
 H          4.4470000000       -0.8980000000       -2.4740000000
 H          3.3240000000       -1.1060000000       -3.8300000000
 H          1.7940000000        0.5630000000       -2.8630000000
 H          2.9080000000        0.8100000000       -1.4980000000
 H          2.1840000000       -2.5400000000       -2.8830000000
 H          0.9850000000       -2.8380000000       -1.6020000000
 H         -0.1430000000       -2.4090000000       -3.8000000000
 H         -0.5000000000       -1.1070000000       -2.6300000000
 H          0.7190000000       -0.8630000000       -3.8940000000
 H          3.6840000000       -2.1150000000        2.5680000000
 H         -1.0390000000        0.5580000000        2.1260000000
 H         -0.3120000000        0.1080000000        3.6450000000
