 xtb: 6.7.1 (edcfbbe)
          04112512083D

 17 16  0     0  0            999 V2000
   -2.6423    0.2840    0.9885 C   0  0  0  0  0  0  0  0  0  0  0  0
   -2.1641    0.4451   -0.4498 C   0  0  0  0  0  0  0  0  0  0  0  0
   -0.8616   -0.3006   -0.7010 C   0  0  0  0  0  0  0  0  0  0  0  0
    0.1791    0.3293    0.0604 O   0  0  0  0  0  0  0  0  0  0  0  0
    1.4017   -0.1768   -0.0319 C   0  0  0  0  0  0  0  0  0  0  0  0
    1.6695   -1.1384   -0.7242 O   0  0  0  0  0  0  0  0  0  0  0  0
    2.3819    0.5782    0.8145 C   0  0  0  0  0  0  0  0  0  0  0  0
   -3.5607    0.8426    1.1447 H   0  0  0  0  0  0  0  0  0  0  0  0
   -2.8308   -0.7634    1.2121 H   0  0  0  0  0  0  0  0  0  0  0  0
   -1.8877    0.6550    1.6769 H   0  0  0  0  0  0  0  0  0  0  0  0
   -2.0064    1.5014   -0.6699 H   0  0  0  0  0  0  0  0  0  0  0  0
   -2.9126    0.0554   -1.1397 H   0  0  0  0  0  0  0  0  0  0  0  0
   -0.9326   -1.3494   -0.3933 H   0  0  0  0  0  0  0  0  0  0  0  0
   -0.5794   -0.2749   -1.7590 H   0  0  0  0  0  0  0  0  0  0  0  0
    3.3830    0.1997    0.6375 H   0  0  0  0  0  0  0  0  0  0  0  0
    2.1166    0.4521    1.8610 H   0  0  0  0  0  0  0  0  0  0  0  0
    2.3237    1.6363    0.5760 H   0  0  0  0  0  0  0  0  0  0  0  0
  1  2  1  0  0  0  0
  2  3  1  0  0  0  0
  3  4  1  0  0  0  0
  4  5  1  0  0  0  0
  5  6  2  0  0  0  0
  5  7  1  0  0  0  0
  1  8  1  0  0  0  0
  1  9  1  0  0  0  0
  1 10  1  0  0  0  0
  2 11  1  0  0  0  0
  2 12  1  0  0  0  0
  3 13  1  0  0  0  0
  3 14  1  0  0  0  0
  7 15  1  0  0  0  0
  7 16  1  0  0  0  0
  7 17  1  0  0  0  0
M  END
