  39
 
 C          3.4480000000        3.6060000000       -0.0290000000
 C          3.6340000000        2.8450000000       -1.3340000000
 C          2.6190000000        1.7220000000       -1.5110000000
 N          2.8010000000        1.0090000000       -2.7450000000
 C          2.7100000000        1.7480000000       -4.0090000000
 C          1.3460000000        2.3800000000       -4.1790000000
 C          1.2060000000        3.1580000000       -5.4800000000
 C          3.0770000000       -0.3690000000       -2.7670000000
 C          2.0290000000       -1.2890000000       -2.8160000000
 C          2.3030000000       -2.6570000000       -2.8370000000
 C          3.6230000000       -3.1050000000       -2.8090000000
 C          4.6710000000       -2.1850000000       -2.7600000000
 C          4.3970000000       -0.8170000000       -2.7390000000
 N          5.4870000000        0.0980000000       -2.6880000000
 O          5.9180000000        0.4630000000       -1.5700000000
 O          5.9810000000        0.5100000000       -3.7640000000
 C          3.9150000000       -4.5670000000       -2.8330000000
 F          2.7960000000       -5.3480000000       -2.8820000000
 F          4.6690000000       -4.9570000000       -3.9040000000
 F          4.6040000000       -4.9830000000       -1.7300000000
 N          0.6720000000       -0.8620000000       -2.8460000000
 O          0.1270000000       -0.6580000000       -3.9560000000
 O          0.0640000000       -0.7040000000       -1.7620000000
 H          4.1910000000        4.4040000000        0.0690000000
 H          2.4540000000        4.0630000000        0.0020000000
 H          3.5380000000        2.9420000000        0.8370000000
 H          4.6430000000        2.4150000000       -1.3480000000
 H          3.5690000000        3.5470000000       -2.1730000000
 H          2.7220000000        0.9930000000       -0.7020000000
 H          1.5940000000        2.1070000000       -1.4950000000
 H          2.9060000000        1.0160000000       -4.7870000000
 H          3.5110000000        2.4800000000       -3.9930000000
 H          0.6010000000        1.5760000000       -4.1700000000
 H          1.1190000000        3.0430000000       -3.3360000000
 H          0.2080000000        3.6000000000       -5.5660000000
 H          1.9390000000        3.9700000000       -5.5130000000
 H          1.3760000000        2.5160000000       -6.3490000000
 H          1.4900000000       -3.3790000000       -2.8770000000
 H          5.6990000000       -2.5400000000       -2.7370000000
