21
 xtb: 6.7.1 (edcfbbe)
C            2.58069657057384       -0.22269539187759        0.66010164982101
C            1.12624772480234       -0.63405353431516        0.43896109817995
C            0.23583263358158        0.52977715805987        0.01375884263263
H            0.36225999128982        1.35114864085372        0.73795482740956
C           -1.26076969535875        0.20204182233480       -0.06119728915223
C           -1.57323079289802       -1.00334090674349       -0.94977625169829
C           -1.85552537647139        0.01400354094571        1.33516861128306
O            0.62053028084283        1.01863135957740       -1.29817402121797
H            3.17341522786757       -1.06838302153306        1.02232217725771
H            2.65277443913342        0.58020223819182        1.40263210289565
H            3.05317507376439        0.12795302835852       -0.26466433854073
H            1.07186276524327       -1.42248134356945       -0.32099514010558
H            0.72630165241330       -1.05600443743880        1.36869705447340
H           -1.73275454846961        1.08812774845425       -0.50802924006353
H           -2.65518433036860       -1.09642128113488       -1.09088202744225
H           -1.11390576384904       -0.91285921976934       -1.93906932752358
H           -1.21994947961883       -1.93417984057699       -0.49283481968360
H           -1.63630673614012        0.86982081960394        1.98291178160117
H           -1.46428705275767       -0.88777915560922        1.81836966412564
H           -2.94328775884368       -0.09204928417546        1.27254088135626
H            1.53662873482930        1.31763291922750       -1.23913881353309
