 xtb: 6.7.1 (edcfbbe)
          04112511593D

 22 22  0     0  0            999 V2000
   -4.3794    0.4687    0.0006 C   0  0  0  0  0  0  0  0  0  0  0  0
   -3.4258   -0.5813   -0.0001 O   0  0  0  0  0  0  0  0  0  0  0  0
   -2.1103   -0.2771   -0.0000 C   0  0  0  0  0  0  0  0  0  0  0  0
   -1.2335   -1.3701   -0.0012 C   0  0  0  0  0  0  0  0  0  0  0  0
    0.1266   -1.1769   -0.0012 C   0  0  0  0  0  0  0  0  0  0  0  0
    0.6499    0.1196   -0.0002 C   0  0  0  0  0  0  0  0  0  0  0  0
   -0.2238    1.2054    0.0009 C   0  0  0  0  0  0  0  0  0  0  0  0
   -1.5902    1.0177    0.0011 C   0  0  0  0  0  0  0  0  0  0  0  0
    2.0964    0.3738   -0.0006 C   0  0  0  0  0  0  0  0  0  0  0  0
    2.6026    1.4842   -0.0022 O   0  0  0  0  0  0  0  0  0  0  0  0
    2.8289   -0.7437    0.0015 O   0  0  0  0  0  0  0  0  0  0  0  0
    4.2474   -0.5879    0.0013 C   0  0  0  0  0  0  0  0  0  0  0  0
   -5.3473   -0.0268   -0.0003 H   0  0  0  0  0  0  0  0  0  0  0  0
   -4.2816    1.0886   -0.8933 H   0  0  0  0  0  0  0  0  0  0  0  0
   -4.2823    1.0867    0.8959 H   0  0  0  0  0  0  0  0  0  0  0  0
   -1.6578   -2.3610   -0.0021 H   0  0  0  0  0  0  0  0  0  0  0  0
    0.7987   -2.0194   -0.0022 H   0  0  0  0  0  0  0  0  0  0  0  0
    0.1942    2.2008    0.0017 H   0  0  0  0  0  0  0  0  0  0  0  0
   -2.2396    1.8774    0.0021 H   0  0  0  0  0  0  0  0  0  0  0  0
    4.6516   -1.5952    0.0157 H   0  0  0  0  0  0  0  0  0  0  0  0
    4.5623   -0.0253    0.8814 H   0  0  0  0  0  0  0  0  0  0  0  0
    4.5646   -0.0501   -0.8933 H   0  0  0  0  0  0  0  0  0  0  0  0
  1  2  1  0  0  0  0
  2  3  1  0  0  0  0
  3  4  4  0  0  0  0
  4  5  2  0  0  0  0
  5  6  4  0  0  0  0
  6  7  4  0  0  0  0
  3  8  4  0  0  0  0
  7  8  4  0  0  0  0
  6  9  1  0  0  0  0
  9 10  2  0  0  0  0
  9 11  1  0  0  0  0
 11 12  1  0  0  0  0
  1 13  1  0  0  0  0
  1 14  1  0  0  0  0
  1 15  1  0  0  0  0
  4 16  1  0  0  0  0
  5 17  1  0  0  0  0
  7 18  1  0  0  0  0
  8 19  1  0  0  0  0
 12 20  1  0  0  0  0
 12 21  1  0  0  0  0
 12 22  1  0  0  0  0
M  END
