12
 xtb: 6.7.1 (edcfbbe)
C            0.06429933385247       -0.21713815507809       -0.21572263798304
H           -0.29998762733474       -0.01395880102108       -1.22664355542070
C            1.44415223271957        0.43187708904471       -0.04629838685609
F            2.31200327851666       -0.03907676705991       -0.95680331883738
F            1.95888390926640        0.22397341836552        1.17741751360363
F            1.32916052025595        1.76257470579298       -0.22883755908702
O           -0.75821167635447        0.30555878550312        0.79326728290929
C           -2.05415806085046        0.63126588151267        0.41394999930061
F           -2.67123996825340       -0.43578605598326       -0.16780121221796
F           -2.03914125413042        1.62077460498639       -0.52684748243603
Cl           0.23843106619443       -2.01849726957756       -0.04712594951842
H           -2.59972774404504        0.95689615547257        1.30076054815633
