 xtb: 6.7.1 (edcfbbe)
          04112512193D

 17 16  0     0  0            999 V2000
   -2.5962    0.5123    0.6276 C   0  0  0  0  0  0  0  0  0  0  0  0
   -1.7245    0.4089   -0.6272 C   0  0  0  0  0  0  0  0  0  0  0  0
   -0.4246   -0.2697   -0.2800 C   0  0  0  0  0  0  0  0  0  0  0  0
   -0.1763   -1.4393   -0.4890 O   0  0  0  0  0  0  0  0  0  0  0  0
    0.4108    0.5642    0.3248 O   0  0  0  0  0  0  0  0  0  0  0  0
    1.6887    0.0668    0.7545 C   0  0  0  0  0  0  0  0  0  0  0  0
    2.7211    0.1813   -0.3567 C   0  0  0  0  0  0  0  0  0  0  0  0
   -2.0909    1.1013    1.3885 H   0  0  0  0  0  0  0  0  0  0  0  0
   -3.5392    0.9901    0.3800 H   0  0  0  0  0  0  0  0  0  0  0  0
   -2.8004   -0.4778    1.0285 H   0  0  0  0  0  0  0  0  0  0  0  0
   -1.5085    1.4063   -1.0077 H   0  0  0  0  0  0  0  0  0  0  0  0
   -2.2290   -0.1833   -1.3897 H   0  0  0  0  0  0  0  0  0  0  0  0
    1.9545    0.6905    1.6086 H   0  0  0  0  0  0  0  0  0  0  0  0
    1.5713   -0.9757    1.0656 H   0  0  0  0  0  0  0  0  0  0  0  0
    2.7880    1.2099   -0.7006 H   0  0  0  0  0  0  0  0  0  0  0  0
    3.6890   -0.1359    0.0175 H   0  0  0  0  0  0  0  0  0  0  0  0
    2.4400   -0.4547   -1.1931 H   0  0  0  0  0  0  0  0  0  0  0  0
  1  2  1  0  0  0  0
  2  3  1  0  0  0  0
  3  4  2  0  0  0  0
  3  5  1  0  0  0  0
  5  6  1  0  0  0  0
  6  7  1  0  0  0  0
  1  8  1  0  0  0  0
  1  9  1  0  0  0  0
  1 10  1  0  0  0  0
  2 11  1  0  0  0  0
  2 12  1  0  0  0  0
  6 13  1  0  0  0  0
  6 14  1  0  0  0  0
  7 15  1  0  0  0  0
  7 16  1  0  0  0  0
  7 17  1  0  0  0  0
M  END
