 25

C      5.842000    -2.317000    -2.694000
C      5.746000    -0.821000    -2.640000
C      6.797000    -0.032000    -2.906000
C      4.408000    -0.259000    -2.272000
H      4.501000     0.835000    -2.276000
C      3.336000    -0.655000    -3.297000
C      1.979000    -0.035000    -2.946000
C      1.655000    -0.145000    -1.487000
C      2.554000    -0.461000    -0.544000
C      4.003000    -0.709000    -0.857000
C      0.272000     0.084000    -1.061000
O     -0.624000     0.360000    -1.849000
H      6.132000    -2.714000    -1.716000
H      4.876000    -2.750000    -2.974000
H      6.584000    -2.656000    -3.425000
H      6.717000     1.049000    -2.864000
H      7.763000    -0.449000    -3.172000
H      3.626000    -0.335000    -4.306000
H      3.238000    -1.749000    -3.330000
H      1.980000     1.026000    -3.226000
H      1.204000    -0.526000    -3.546000
H      2.260000    -0.552000     0.498000
H      4.619000    -0.178000    -0.120000
H      4.199000    -1.780000    -0.720000
H      0.095000    -0.010000     0.023000
