 xtb: 6.7.1 (edcfbbe)
          04112512203D

 18 17  0     0  0            999 V2000
   -2.5276    0.5954    0.1273 C   0  0  0  0  0  0  0  0  0  0  0  0
   -1.1628    0.7467   -0.5353 C   0  0  0  0  0  0  0  0  0  0  0  0
   -0.0459    0.0166    0.2167 C   0  0  0  0  0  0  0  0  0  0  0  0
   -0.0331    0.3751    1.2531 H   0  0  0  0  0  0  0  0  0  0  0  0
   -0.2460   -1.4975    0.2246 C   0  0  0  0  0  0  0  0  0  0  0  0
    1.3114    0.3536   -0.4183 C   0  0  0  0  0  0  0  0  0  0  0  0
    2.4090   -0.1729    0.2956 O   0  0  0  0  0  0  0  0  0  0  0  0
   -3.2666    1.1942   -0.3992 H   0  0  0  0  0  0  0  0  0  0  0  0
   -2.8558   -0.4399    0.1111 H   0  0  0  0  0  0  0  0  0  0  0  0
   -2.4883    0.9303    1.1614 H   0  0  0  0  0  0  0  0  0  0  0  0
   -0.9122    1.8091   -0.5890 H   0  0  0  0  0  0  0  0  0  0  0  0
   -1.2101    0.3679   -1.5584 H   0  0  0  0  0  0  0  0  0  0  0  0
    0.6532   -1.9839    0.5964 H   0  0  0  0  0  0  0  0  0  0  0  0
   -0.4352   -1.8571   -0.7845 H   0  0  0  0  0  0  0  0  0  0  0  0
   -1.0796   -1.7802    0.8605 H   0  0  0  0  0  0  0  0  0  0  0  0
    1.4168    1.4428   -0.5206 H   0  0  0  0  0  0  0  0  0  0  0  0
    1.3753   -0.0907   -1.4148 H   0  0  0  0  0  0  0  0  0  0  0  0
    2.4234    0.2177    1.1803 H   0  0  0  0  0  0  0  0  0  0  0  0
  1  2  1  0  0  0  0
  2  3  1  0  0  0  0
  3  4  1  0  0  0  0
  3  5  1  0  0  0  0
  3  6  1  0  0  0  0
  6  7  1  0  0  0  0
  1  8  1  0  0  0  0
  1  9  1  0  0  0  0
  1 10  1  0  0  0  0
  2 11  1  0  0  0  0
  2 12  1  0  0  0  0
  5 13  1  0  0  0  0
  5 14  1  0  0  0  0
  5 15  1  0  0  0  0
  6 16  1  0  0  0  0
  6 17  1  0  0  0  0
  7 18  1  0  0  0  0
M  END
