 xtb: 6.7.1 (edcfbbe)
          04072505513D

 15 14  0     0  0            999 V2000
    2.3244   -0.5006    0.5722 C   0  0  0  0  0  0  0  0  0  0  0  0
    1.5235   -0.1246   -0.6696 C   0  0  0  0  0  0  0  0  0  0  0  0
    0.5689    1.0483   -0.4429 C   0  0  0  0  0  0  0  0  0  0  0  0
   -0.5519    0.7715    0.5489 C   0  0  0  0  0  0  0  0  0  0  0  0
   -1.7533   -0.4845   -0.0356 S   0  0  0  0  0  0  0  0  0  0  0  0
    2.8694    0.3626    0.9479 H   0  0  0  0  0  0  0  0  0  0  0  0
    3.0421   -1.2810    0.3317 H   0  0  0  0  0  0  0  0  0  0  0  0
    1.6795   -0.8709    1.3650 H   0  0  0  0  0  0  0  0  0  0  0  0
    0.9593   -0.9907   -1.0222 H   0  0  0  0  0  0  0  0  0  0  0  0
    2.2168    0.1557   -1.4651 H   0  0  0  0  0  0  0  0  0  0  0  0
    0.1231    1.3317   -1.3991 H   0  0  0  0  0  0  0  0  0  0  0  0
    1.1355    1.9048   -0.0692 H   0  0  0  0  0  0  0  0  0  0  0  0
   -0.1770    0.4420    1.5151 H   0  0  0  0  0  0  0  0  0  0  0  0
   -1.1566    1.6669    0.6921 H   0  0  0  0  0  0  0  0  0  0  0  0
   -0.9684   -1.5418    0.1321 H   0  0  0  0  0  0  0  0  0  0  0  0
  1  2  1  0  0  0  0
  2  3  1  0  0  0  0
  3  4  1  0  0  0  0
  4  5  1  0  0  0  0
  1  6  1  0  0  0  0
  1  7  1  0  0  0  0
  1  8  1  0  0  0  0
  2  9  1  0  0  0  0
  2 10  1  0  0  0  0
  3 11  1  0  0  0  0
  3 12  1  0  0  0  0
  4 13  1  0  0  0  0
  4 14  1  0  0  0  0
  5 15  1  0  0  0  0
M  END
