 xtb: 6.7.1 (edcfbbe)
          04112511573D

 25 25  0     0  0            999 V2000
    3.4785    0.8644   -0.4919 C   0  0  0  0  0  0  0  0  0  0  0  0
    2.5789   -0.0767    0.2520 C   0  0  0  0  0  0  0  0  0  0  0  0
    3.0274   -0.8375    1.2377 C   0  0  0  0  0  0  0  0  0  0  0  0
    1.1363   -0.0590   -0.1991 C   0  0  0  0  0  0  0  0  0  0  0  0
    1.1182    0.1853   -1.2666 H   0  0  0  0  0  0  0  0  0  0  0  0
    0.3990   -1.3861   -0.0094 C   0  0  0  0  0  0  0  0  0  0  0  0
   -0.9641   -1.3187   -0.6933 C   0  0  0  0  0  0  0  0  0  0  0  0
   -1.7139   -0.0899   -0.2613 C   0  0  0  0  0  0  0  0  0  0  0  0
   -1.0964    0.9587    0.3082 C   0  0  0  0  0  0  0  0  0  0  0  0
    0.3644    1.0381    0.5499 C   0  0  0  0  0  0  0  0  0  0  0  0
   -3.1509   -0.0553   -0.4687 C   0  0  0  0  0  0  0  0  0  0  0  0
   -3.8926    0.8699   -0.1868 O   0  0  0  0  0  0  0  0  0  0  0  0
    3.0796    1.8768   -0.4607 H   0  0  0  0  0  0  0  0  0  0  0  0
    4.4777    0.8690   -0.0656 H   0  0  0  0  0  0  0  0  0  0  0  0
    3.5472    0.5676   -1.5377 H   0  0  0  0  0  0  0  0  0  0  0  0
    2.3978   -1.5193    1.7809 H   0  0  0  0  0  0  0  0  0  0  0  0
    4.0604   -0.8103    1.5413 H   0  0  0  0  0  0  0  0  0  0  0  0
    0.9869   -2.2044   -0.4261 H   0  0  0  0  0  0  0  0  0  0  0  0
    0.2514   -1.5760    1.0541 H   0  0  0  0  0  0  0  0  0  0  0  0
   -0.8377   -1.2973   -1.7795 H   0  0  0  0  0  0  0  0  0  0  0  0
   -1.5517   -2.2068   -0.4520 H   0  0  0  0  0  0  0  0  0  0  0  0
   -1.6991    1.8023    0.6194 H   0  0  0  0  0  0  0  0  0  0  0  0
    0.7220    2.0292    0.2627 H   0  0  0  0  0  0  0  0  0  0  0  0
    0.5420    0.9419    1.6264 H   0  0  0  0  0  0  0  0  0  0  0  0
   -3.5719   -0.9692   -0.9286 H   0  0  0  0  0  0  0  0  0  0  0  0
  1  2  1  0  0  0  0
  2  3  2  0  0  0  0
  2  4  1  0  0  0  0
  4  5  1  0  0  0  0
  4  6  1  0  0  0  0
  6  7  1  0  0  0  0
  7  8  1  0  0  0  0
  8  9  2  0  0  0  0
  4 10  1  0  0  0  0
  9 10  1  0  0  0  0
  8 11  1  0  0  0  0
 11 12  2  0  0  0  0
  1 13  1  0  0  0  0
  1 14  1  0  0  0  0
  1 15  1  0  0  0  0
  3 16  1  0  0  0  0
  3 17  1  0  0  0  0
  6 18  1  0  0  0  0
  6 19  1  0  0  0  0
  7 20  1  0  0  0  0
  7 21  1  0  0  0  0
  9 22  1  0  0  0  0
 10 23  1  0  0  0  0
 10 24  1  0  0  0  0
 11 25  1  0  0  0  0
M  END
