 11

C     -0.270000    -0.544000    -1.141000
C     -0.182000    -0.403000     0.376000
C      0.242000     1.008000     0.773000
I      1.232000    -1.834000     1.158000
H     -0.574000    -1.557000    -1.428000
H     -1.011000     0.152000    -1.549000
H      0.690000    -0.333000    -1.626000
H     -1.165000    -0.615000     0.810000
H      0.305000     1.111000     1.862000
H     -0.486000     1.743000     0.413000
H      1.219000     1.272000     0.353000
