 xtb: 6.7.1 (edcfbbe)
          04112511103D

 14 13  0     0  0            999 V2000
   -3.4122   -0.6859   -0.5240 C   0  0  0  0  0  0  0  0  0  0  0  0
   -2.7830    0.1059    0.6173 C   0  0  0  0  0  0  0  0  0  0  0  0
   -1.2882   -0.1733    0.7957 C   0  0  0  0  0  0  0  0  0  0  0  0
   -0.4796    0.3377   -0.3809 C   0  0  0  0  0  0  0  0  0  0  0  0
    1.4540    0.0795   -0.0785 Br  0  0  0  0  0  0  0  0  0  0  0  0
   -3.0209   -0.3703   -1.4876 H   0  0  0  0  0  0  0  0  0  0  0  0
   -3.2184   -1.7490   -0.4020 H   0  0  0  0  0  0  0  0  0  0  0  0
   -4.4882   -0.5338   -0.5326 H   0  0  0  0  0  0  0  0  0  0  0  0
   -3.2852   -0.1572    1.5495 H   0  0  0  0  0  0  0  0  0  0  0  0
   -2.9339    1.1740    0.4490 H   0  0  0  0  0  0  0  0  0  0  0  0
   -0.9405    0.3175    1.7077 H   0  0  0  0  0  0  0  0  0  0  0  0
   -1.1266   -1.2473    0.9114 H   0  0  0  0  0  0  0  0  0  0  0  0
   -0.6119    1.4080   -0.5303 H   0  0  0  0  0  0  0  0  0  0  0  0
   -0.6986   -0.2004   -1.3003 H   0  0  0  0  0  0  0  0  0  0  0  0
  1  2  1  0  0  0  0
  2  3  1  0  0  0  0
  3  4  1  0  0  0  0
  4  5  1  0  0  0  0
  1  6  1  0  0  0  0
  1  7  1  0  0  0  0
  1  8  1  0  0  0  0
  2  9  1  0  0  0  0
  2 10  1  0  0  0  0
  3 11  1  0  0  0  0
  3 12  1  0  0  0  0
  4 13  1  0  0  0  0
  4 14  1  0  0  0  0
M  END
