  14
 
 C         -1.6835501358        1.4515334092       -0.1806374374
 C         -1.6324581959        0.0146238014        0.3287626841
 C         -2.9601751819       -0.6970236230        0.0714437820
 C         -0.5183841223       -0.7694467861       -0.3502096182
 Br         1.2516850347       -0.0909354887        0.1232954783
 H         -0.7463857895        1.9667093454        0.0178569345
 H         -1.8678352112        1.4685662227       -1.2535258811
 H         -2.4829054884        1.9978469440        0.3136060665
 H         -1.4435279960        0.0277100922        1.4082813989
 H         -2.9388805848       -1.7144358102        0.4561145104
 H         -3.1713863920       -0.7357434162       -0.9953838817
 H         -3.7699996921       -0.1628614590        0.5617634383
 H         -0.5887950893       -0.7027816778       -1.4356593589
 H         -0.5252403914       -1.8158923294       -0.0463508260
          14
        -17.24394536
 C         -1.7440930979        1.4526858015       -0.1571017000
 C         -1.6309113390        0.0083425249        0.3207937645
 C         -2.9412942251       -0.7425286178        0.0857096902
 C         -0.5119849339       -0.7248435428       -0.4057748245
 Br         1.2488944144       -0.0022758803        0.0356705254
 H         -1.9757258490        1.4846731134       -1.2205162181
 H         -2.5354050924        1.9673428692        0.3822542180
 H         -0.8133553192        1.9901367047        0.0109103277
 H         -1.4113234012        0.0063693065        1.3945411949
 H         -3.1771519236       -0.7738218721       -0.9762598028
 H         -3.7556083962       -0.2416768119        0.6028308661
 H         -2.8776396460       -1.7636324493        0.4553700013
 H         -0.6141854895       -0.6359223753       -1.4871236444
 H         -0.4774112316       -1.7774433535       -0.1264088876
