 14

C      0.561000    -0.759000     1.093000
C     -0.360000    -0.137000     0.040000
C     -0.528000     1.356000     0.329000
C      0.178000    -0.328000    -1.377000
Br     0.363000    -2.218000    -1.817000
H      0.703000    -1.830000     0.915000
H      1.548000    -0.282000     1.073000
H      0.161000    -0.634000     2.104000
H     -1.348000    -0.608000     0.128000
H     -1.184000     1.833000    -0.408000
H      0.439000     1.869000     0.304000
H     -0.963000     1.514000     1.322000
H      1.162000     0.129000    -1.517000
H     -0.510000     0.073000    -2.128000
