 xtb: 6.7.1 (edcfbbe)
          04112511193D

 14 13  0     0  0            999 V2000
   -0.9932   -0.5789   -0.1973 C   0  0  0  0  0  0  0  0  0  0  0  0
    0.0235    0.2772    0.5618 C   0  0  0  0  0  0  0  0  0  0  0  0
    1.3936   -0.4048    0.6170 C   0  0  0  0  0  0  0  0  0  0  0  0
    1.7176   -0.9381   -0.6472 O   0  0  0  0  0  0  0  0  0  0  0  0
    0.1745    1.5415   -0.0444 O   0  0  0  0  0  0  0  0  0  0  0  0
   -2.2406    0.0817   -0.1333 O   0  0  0  0  0  0  0  0  0  0  0  0
   -1.0449   -1.5687    0.2705 H   0  0  0  0  0  0  0  0  0  0  0  0
   -0.6541   -0.6851   -1.2335 H   0  0  0  0  0  0  0  0  0  0  0  0
   -0.3376    0.4137    1.5944 H   0  0  0  0  0  0  0  0  0  0  0  0
    1.3595   -1.2036    1.3697 H   0  0  0  0  0  0  0  0  0  0  0  0
    2.1224    0.3535    0.9228 H   0  0  0  0  0  0  0  0  0  0  0  0
    2.6443   -1.2145   -0.6465 H   0  0  0  0  0  0  0  0  0  0  0  0
   -0.7112    1.8760   -0.2508 H   0  0  0  0  0  0  0  0  0  0  0  0
   -2.8966   -0.4260   -0.6288 H   0  0  0  0  0  0  0  0  0  0  0  0
  1  2  1  0  0  0  0
  2  3  1  0  0  0  0
  3  4  1  0  0  0  0
  2  5  1  0  0  0  0
  1  6  1  0  0  0  0
  1  7  1  0  0  0  0
  1  8  1  0  0  0  0
  2  9  1  0  0  0  0
  3 10  1  0  0  0  0
  3 11  1  0  0  0  0
  4 12  1  0  0  0  0
  5 13  1  0  0  0  0
  6 14  1  0  0  0  0
M  END
