27
 xtb: 6.7.1 (edcfbbe)
C           -3.57039371200731       -0.60185527754882       -1.81699064939233
C           -3.00533364176327       -1.58292813783469       -0.79451315395216
C           -2.51380695252246       -0.97894324068149        0.52731048405468
H           -2.06608806626601       -1.79431867227215        1.09794354906966
C           -3.61942611863580       -0.39451969026891        1.40025765431618
N           -1.35104175850486       -0.05911045701412        0.29713294450756
C           -0.07592039061996       -0.68121032802970        0.25679396677928
O            0.02869746496369       -1.89936733630748        0.40131075024536
C            1.03896259212896        0.20762113939920        0.04862486652646
C            0.87802975251272        1.54615828563700       -0.13791322077461
N           -0.39647727599660        2.03198587253908       -0.12239798984716
C           -1.54850810934204        1.28657499126598        0.05021263358989
O           -2.64641455772232        1.83668222893721       -0.01085569786072
C            1.97155356899270        2.52483110601013       -0.37694863884215
Br           2.76662167856416       -0.57092860049387        0.00579573196873
H           -4.42114208074310       -0.04006581696430       -1.42083667156003
H           -2.81298572868312        0.11513037242184       -2.14899159950604
H           -3.91494705271287       -1.14768367757926       -2.70101950542309
H           -3.77038872059655       -2.32236411698538       -0.52764634388653
H           -2.17603049423157       -2.13990795886060       -1.24562799764849
H           -4.30434860354043        0.25784754785968        0.86040580204925
H           -4.19056360927454       -1.23901604539222        1.79887153914612
H           -3.20659441134568        0.15860857527986        2.24858408163553
H           -0.54729613226856        3.02038965448768       -0.28398778525339
H            2.42339481865999        2.34629424407999       -1.35887516835481
H            2.75853513688476        2.40793854654715        0.37250953640134
H            1.59645163647747        3.54934095501273       -0.34592839230794
