 xtb: 6.7.1 (edcfbbe)
          04112512103D

 18 17  0     0  0            999 V2000
    1.4551   -1.3962   -0.0984 C   0  0  0  0  0  0  0  0  0  0  0  0
    1.0834    0.0177    0.3444 C   0  0  0  0  0  0  0  0  0  0  0  0
    2.1831    0.9973   -0.0648 C   0  0  0  0  0  0  0  0  0  0  0  0
   -0.2551    0.4664   -0.2515 C   0  0  0  0  0  0  0  0  0  0  0  0
   -1.4527   -0.3304    0.2684 C   0  0  0  0  0  0  0  0  0  0  0  0
   -2.6896    0.2492   -0.0977 O   0  0  0  0  0  0  0  0  0  0  0  0
    0.7317   -2.1224    0.2617 H   0  0  0  0  0  0  0  0  0  0  0  0
    2.4315   -1.6671    0.2960 H   0  0  0  0  0  0  0  0  0  0  0  0
    1.4967   -1.4542   -1.1838 H   0  0  0  0  0  0  0  0  0  0  0  0
    0.9955    0.0299    1.4366 H   0  0  0  0  0  0  0  0  0  0  0  0
    2.2930    1.0113   -1.1469 H   0  0  0  0  0  0  0  0  0  0  0  0
    3.1344    0.7055    0.3730 H   0  0  0  0  0  0  0  0  0  0  0  0
    1.9459    2.0042    0.2702 H   0  0  0  0  0  0  0  0  0  0  0  0
   -0.2089    0.3852   -1.3403 H   0  0  0  0  0  0  0  0  0  0  0  0
   -0.4230    1.5163    0.0008 H   0  0  0  0  0  0  0  0  0  0  0  0
   -1.4125   -1.3690   -0.0832 H   0  0  0  0  0  0  0  0  0  0  0  0
   -1.4525   -0.3365    1.3616 H   0  0  0  0  0  0  0  0  0  0  0  0
   -2.7460    0.2839   -1.0627 H   0  0  0  0  0  0  0  0  0  0  0  0
  1  2  1  0  0  0  0
  2  3  1  0  0  0  0
  2  4  1  0  0  0  0
  4  5  1  0  0  0  0
  5  6  1  0  0  0  0
  1  7  1  0  0  0  0
  1  8  1  0  0  0  0
  1  9  1  0  0  0  0
  2 10  1  0  0  0  0
  3 11  1  0  0  0  0
  3 12  1  0  0  0  0
  3 13  1  0  0  0  0
  4 14  1  0  0  0  0
  4 15  1  0  0  0  0
  5 16  1  0  0  0  0
  5 17  1  0  0  0  0
  6 18  1  0  0  0  0
M  END
