22
 xtb: 6.7.1 (edcfbbe)
C            1.77154145429356        1.30726886752716        0.75367543166135
C            1.28467703919223       -0.12634440747175        0.46597160437585
C            2.34809426408920       -0.93559120962507       -0.26687221325518
C           -0.00005220906564        0.00048567807782       -0.32607747684621
O           -0.00007591150344        0.00271316217865       -1.55361656431627
C           -1.28471044515119        0.12467612730934        0.46650658083027
C           -1.77103411739462       -1.30999536512619        0.74981093570392
C           -2.34849876287252        0.93583732759948       -0.26367530923506
H            2.02993664259646        1.81301028409109       -0.18276560389876
H            2.66435790182847        1.27162404038210        1.38510809444154
H            1.01135188372310        1.90099198693428        1.27077680970214
H            1.04014223377845       -0.60071854077814        1.42429732135156
H            2.63137698673961       -0.44801928087018       -1.20461431855033
H            3.24389062841274       -1.02375245478220        0.35515284116217
H            1.99028863674585       -1.94378744198353       -0.49860794182223
H           -1.04018681164969        0.59615304149474        1.42627015475283
H           -1.01057848296151       -1.90505694611281        1.26497200879626
H           -2.66378912774297       -1.27662518693452        1.38145395591046
H           -2.02935709946433       -1.81291922130369       -0.18816889784968
H           -1.99104453330177        1.94485337050629       -0.49236323897967
H           -2.63175653136613        0.45107769535938       -1.20287757099025
H           -3.24424290742469        1.02182064495531        0.35873025686882
