 xtb: 6.7.1 (edcfbbe)
          04112512193D

 22 23  0     0  0            999 V2000
   -3.2877    0.7452    0.4334 C   0  0  0  0  0  0  0  0  0  0  0  0
   -2.2519    1.5192   -0.0637 C   0  0  0  0  0  0  0  0  0  0  0  0
   -1.0846    0.9185   -0.4990 C   0  0  0  0  0  0  0  0  0  0  0  0
   -0.9392   -0.4622   -0.4368 C   0  0  0  0  0  0  0  0  0  0  0  0
   -1.9784   -1.2316    0.0665 C   0  0  0  0  0  0  0  0  0  0  0  0
   -3.1496   -0.6307    0.4960 C   0  0  0  0  0  0  0  0  0  0  0  0
    0.3442   -1.1067   -0.9069 C   0  0  0  0  0  0  0  0  0  0  0  0
    1.4934   -0.4832   -0.2995 N   0  0  0  0  0  0  0  0  0  0  0  0
    1.8357   -0.5466    1.0203 C   0  0  0  0  0  0  0  0  0  0  0  0
    2.9437    0.2373    1.1616 C   0  0  0  0  0  0  0  0  0  0  0  0
    3.2841    0.7834   -0.0381 N   0  0  0  0  0  0  0  0  0  0  0  0
    2.3922    0.3351   -0.8844 C   0  0  0  0  0  0  0  0  0  0  0  0
   -4.1987    1.2144    0.7721 H   0  0  0  0  0  0  0  0  0  0  0  0
   -2.3533    2.5927   -0.1136 H   0  0  0  0  0  0  0  0  0  0  0  0
   -0.2762    1.5245   -0.8832 H   0  0  0  0  0  0  0  0  0  0  0  0
   -1.8740   -2.3052    0.1208 H   0  0  0  0  0  0  0  0  0  0  0  0
   -3.9530   -1.2381    0.8843 H   0  0  0  0  0  0  0  0  0  0  0  0
    0.3400   -2.1713   -0.6574 H   0  0  0  0  0  0  0  0  0  0  0  0
    0.4407   -1.0001   -1.9912 H   0  0  0  0  0  0  0  0  0  0  0  0
    1.2782   -1.1258    1.7261 H   0  0  0  0  0  0  0  0  0  0  0  0
    3.5191    0.4443    2.0415 H   0  0  0  0  0  0  0  0  0  0  0  0
    2.3758    0.5746   -1.9290 H   0  0  0  0  0  0  0  0  0  0  0  0
  1  2  4  0  0  0  0
  2  3  4  0  0  0  0
  3  4  4  0  0  0  0
  4  5  4  0  0  0  0
  1  6  4  0  0  0  0
  5  6  4  0  0  0  0
  4  7  1  0  0  0  0
  7  8  1  0  0  0  0
  8  9  4  0  0  0  0
  9 10  2  0  0  0  0
 10 11  4  0  0  0  0
  8 12  4  0  0  0  0
 11 12  2  0  0  0  0
  1 13  1  0  0  0  0
  2 14  1  0  0  0  0
  3 15  1  0  0  0  0
  5 16  1  0  0  0  0
  6 17  1  0  0  0  0
  7 18  1  0  0  0  0
  7 19  1  0  0  0  0
  9 20  1  0  0  0  0
 10 21  1  0  0  0  0
 12 22  1  0  0  0  0
M  END
