  17
 
 C         -2.8941316398        1.4920668414        0.0030958525
 C         -1.8119930618        0.4591479308        0.0148882552
 C         -2.1188844999       -0.8991010181        0.0085402391
 C         -1.1227673550       -1.8623839384       -0.0011319154
 C          0.2072474897       -1.4876842719       -0.0046068017
 C          0.5166977731       -0.1332904489        0.0007997137
 C         -0.4771751728        0.8361188626        0.0103407057
 N          1.8981999727        0.2767977952       -0.0012056931
 O          2.1342655035        1.4666999084        0.0042774854
 O          2.7444385322       -0.5921059341       -0.0083991090
 H         -3.1562700021        1.7394859781       -1.0258230014
 H         -3.7887476518        1.1235871975        0.4987013781
 H         -2.5644336762        2.4040180265        0.4938938484
 H         -3.1548766056       -1.2050290269        0.0124229966
 H         -1.3858521949       -2.9088899526       -0.0039553360
 H          1.0041132378       -2.2146618722       -0.0097587640
 H         -0.1922429281        1.8776466394        0.0151243633
          17
        -29.51205682
 C         -2.9043503338        1.4660187714        0.0007815647
 C         -1.8044313661        0.4518653680        0.0002370470
 C         -2.1020092272       -0.9098059996       -0.0004392262
 C         -1.1001366842       -1.8656560714       -0.0007890214
 C          0.2278992700       -1.4809918123       -0.0004870001
 C          0.5274319325       -0.1251710381        0.0000537174
 C         -0.4736722537        0.8382593286        0.0004406738
 N          1.9060668614        0.2948253296        0.0001417060
 O          2.7584917975       -0.5682064120        0.0018969498
 O          2.1335831642        1.4863674310       -0.0019446914
 H         -3.5345160175        1.3395775888       -0.8782785594
 H         -3.5336069998        1.3396020291        0.8805206405
 H         -2.5036928876        2.4756345307        0.0006219186
 H         -3.1365739750       -1.2207024348       -0.0004504833
 H         -1.3552903254       -2.9141236777       -0.0012235520
 H          1.0296388011       -2.2026401422       -0.0008730035
 H         -0.1942798013        1.8812356804        0.0008817356
