 17

C      1.931000    -1.014000    -1.603000
C      1.885000    -1.036000    -0.112000
C      2.921000    -1.631000     0.608000
C      2.878000    -1.652000     2.002000
C      1.800000    -1.079000     2.676000
C      0.764000    -0.484000     1.955000
C      0.807000    -0.463000     0.561000
N     -0.333000     0.101000     2.642000
O     -1.254000     0.631000     1.975000
O     -0.350000     0.073000     3.896000
H      2.438000    -0.108000    -1.948000
H      2.463000    -1.888000    -1.991000
H      0.920000    -1.036000    -2.025000
H      3.765000    -2.080000     0.092000
H      3.684000    -2.116000     2.563000
H      1.779000    -1.102000     3.763000
H      0.002000     0.000000    -0.005000
