  15
 
 C          1.8850000000       -1.0360000000       -0.1120000000
 C          2.9210000000       -1.6310000000        0.6080000000
 C          2.8780000000       -1.6520000000        2.0020000000
 C          1.8000000000       -1.0790000000        2.6760000000
 C          0.7640000000       -0.4840000000        1.9550000000
 C          0.8070000000       -0.4630000000        0.5610000000
 C          1.7550000000       -1.1010000000        4.1660000000
 F          2.8340000000       -1.7140000000        4.7370000000
 F          1.7120000000        0.1420000000        4.7310000000
 F          0.6610000000       -1.7610000000        4.6490000000
 H          1.9180000000       -1.0210000000       -1.1980000000
 H          3.7600000000       -2.0780000000        0.0840000000
 H          3.6900000000       -2.1170000000        2.5550000000
 H         -0.0800000000       -0.0350000000        2.4710000000
 H         -0.0010000000       -0.0010000000        0.0000000000
