  19
 
 C          1.7360957346       -2.2208328433       -1.1381868370
 O          1.3447354276       -1.6489522149        0.1036412552
 C          0.8038479473       -0.3988747925        0.0287963148
 C          1.5978163134        0.7483759146       -0.0557480624
 C          1.0223461791        2.0095828475       -0.0520397658
 C         -0.3492458223        2.1509231247        0.0415634805
 C         -1.1491894482        1.0226144412        0.1362883989
 C         -0.5827041476       -0.2476094182        0.1242179514
 C         -1.4252475549       -1.4870037703        0.1766495580
 O         -1.4995320329       -2.2906597290       -0.7113454183
 O         -2.0851857751       -1.5916815807        1.3266286333
 Cl        -2.8583483247        1.1969123055        0.2307116944
 Cl         3.3120155444        0.5942912749       -0.1383408856
 H          2.2437706827       -3.1487703681       -0.8846401400
 H          2.4174909989       -1.5650528557       -1.6863163580
 H          0.8555078801       -2.4348389421       -1.7504067459
 H          1.6547609667        2.8807966743       -0.1177124736
 H         -0.7993867821        3.1303689215        0.0440504489
 H         -2.6257964806       -2.3981897230        1.3420497524
          19
        -41.49471460
 C          0.7311823531       -2.8230403957        0.0352311273
 O          1.4609408491       -1.6177904548        0.0213856069
 C          0.8486098249       -0.4216267862       -0.0071815180
 C          1.7223355413        0.6841102007        0.0018539648
 C          1.2592767765        1.9822647057       -0.0004874025
 C         -0.1035800743        2.2298229182       -0.0099096330
 C         -0.9745816909        1.1591441289       -0.0153273930
 C         -0.5259241309       -0.1653847806       -0.0148704616
 C         -1.6030045510       -1.2099679226       -0.0695533738
 O         -1.9292657056       -1.8153850707       -1.0531933481
 O         -2.2040983895       -1.3561556349        1.1133302460
 Cl        -2.6731694447        1.4553239235       -0.0580540971
 Cl         3.4139885655        0.3723607076        0.0153799056
 H          1.4801870764       -3.6067516630        0.1426000153
 H          0.1790895679       -2.9719466168       -0.8954865468
 H          0.0448679643       -2.8639778668        0.8857197711
 H          1.9640454168        2.7977335086        0.0042857399
 H         -0.4828328035        3.2379853267       -0.0164042171
 H         -2.9608883743       -1.9607692728        1.0425315098
