  19
 
 C          2.5540000000        0.1100000000       -2.0820000000
 O          1.9230000000       -1.0130000000       -1.4770000000
 C          1.8850000000       -1.0360000000       -0.1120000000
 C          2.9210000000       -1.6310000000        0.6080000000
 C          2.8780000000       -1.6520000000        2.0020000000
 C          1.8000000000       -1.0790000000        2.6760000000
 C          0.7640000000       -0.4840000000        1.9550000000
 C          0.8070000000       -0.4630000000        0.5610000000
 C         -0.2680000000        0.1540000000       -0.2130000000
 O         -0.6080000000        1.3350000000       -0.1380000000
 O         -0.8720000000       -0.7300000000       -1.0500000000
 Cl        -0.5520000000        0.2130000000        2.8310000000
 Cl         4.2690000000       -2.3490000000       -0.1950000000
 H          2.5180000000        0.0070000000       -3.1690000000
 H          3.5920000000        0.1700000000       -1.7450000000
 H          2.0240000000        1.0180000000       -1.7850000000
 H          3.6780000000       -2.1110000000        2.5780000000
 H          1.7820000000       -1.1040000000        3.7620000000
 H         -1.5940000000       -0.3240000000       -1.5750000000
