 12

C      0.747000     1.302000    -0.111000
C     -0.227000     0.966000     0.743000
C     -0.816000    -0.402000     0.653000
O     -1.712000    -0.777000     1.403000
N     -0.270000    -1.205000    -0.343000
C      0.747000    -0.847000    -1.231000
O      1.181000    -1.616000    -2.089000
N      1.224000     0.443000    -1.063000
Br    -0.874000     2.136000     2.038000
H      1.220000     2.277000    -0.104000
H     -0.647000    -2.144000    -0.433000
H      1.965000     0.767000    -1.677000
