  12
 
 C          1.0107931688        1.3379907931        0.0001491924
 C          0.3467837627        0.1690858908       -0.0001253726
 C          1.0578130843       -1.1033313088        0.0003380106
 O          0.5505141278       -2.1946883139       -0.0003167699
 N          2.4406928315       -0.9427843533       -0.0000530631
 C          3.1605049170        0.2290966255        0.0000237880
 O          4.3620935723        0.2758592419       -0.0001067827
 N          2.3730801629        1.3671407512        0.0002488162
 I         -1.7398848010        0.0571689718        0.0004526427
 H          0.5058409804        2.2925641500        0.0005288181
 H          2.9896801715       -1.7963858542       -0.0004122003
 H          2.8688873866        2.2477856267        0.0004044432
          12
        -27.91687717
 C          1.0393998354        1.3509896486        0.0003588172
 C          0.3561087751        0.1932566179        0.0002491586
 C          1.0456252544       -1.0910568994        0.0006062102
 O          0.5196794457       -2.1736308068        0.0000541616
 N          2.4305775881       -0.9536681930        0.0005708145
 C          3.1703212083        0.2058775555       -0.0000715059
 O          4.3725701170        0.2318768823       -0.0012374589
 N          2.4023373424        1.3567508676        0.0008410911
 I         -1.7323589342        0.1162835320       -0.0001211733
 H          0.5508067334        2.3140596711        0.0004399256
 H          2.9647371372       -1.8167286969        0.0000530591
 H          2.9123857564        2.2292126740        0.0003092870
