21
 xtb: 6.7.1 (edcfbbe)
C            2.07413841079219        0.17444899969445       -1.14808002792734
C            1.67842273649489       -0.52873727954934        0.14747895551555
C            0.28618119969856       -0.22294608349580        0.70527932499618
H            0.16037590886723       -0.86542240452181        1.59080029940055
C           -0.89074960144003       -0.52053029341383       -0.24379313936585
C           -2.13389400490127       -0.92389785609997        0.55538358305827
C           -1.24599262767827        0.63700789684342       -1.18346733566282
O            0.18033826505571        1.15615633770019        1.13413505527390
H            1.96917439992087        1.26119344229395       -1.06665909393925
H            1.47081872117836       -0.16566059612769       -1.99494136367371
H            3.12138963037376       -0.03900754931189       -1.38565215409372
H            1.74175185257101       -1.61581862097775        0.00958706166390
H            2.40410182806068       -0.27888945577972        0.93380447565818
H           -0.58248395331765       -1.38019763098742       -0.85398898287197
H           -2.43713621626469       -0.11334088651526        1.22882008145061
H           -2.97639888879640       -1.13545304642201       -0.11189523262498
H           -1.94835342693859       -1.81695259337789        1.16122127985826
H           -0.38449245473608        1.02651616384073       -1.72906839013271
H           -1.69199254988038        1.46612734995374       -0.62501963410735
H           -1.98490563010817        0.29946799926518       -1.91784058182172
H            0.86473502489899        1.29563722795597        1.80115121458986
