 xtb: 6.7.1 (edcfbbe)
          04112511193D

 14 13  0     0  0            999 V2000
   -1.4392    0.0963    0.6101 C   0  0  0  0  0  0  0  0  0  0  0  0
    0.0663    0.3789    0.4861 C   0  0  0  0  0  0  0  0  0  0  0  0
    0.7943   -0.8593   -0.0553 C   0  0  0  0  0  0  0  0  0  0  0  0
    2.1937   -0.7618    0.0034 O   0  0  0  0  0  0  0  0  0  0  0  0
    0.3486    1.4553   -0.3773 O   0  0  0  0  0  0  0  0  0  0  0  0
   -1.9385   -0.3647   -0.6244 O   0  0  0  0  0  0  0  0  0  0  0  0
   -1.9499    1.0210    0.9119 H   0  0  0  0  0  0  0  0  0  0  0  0
   -1.5843   -0.6581    1.3943 H   0  0  0  0  0  0  0  0  0  0  0  0
    0.4456    0.6066    1.4977 H   0  0  0  0  0  0  0  0  0  0  0  0
    0.5418   -0.9698   -1.1109 H   0  0  0  0  0  0  0  0  0  0  0  0
    0.4446   -1.7444    0.4920 H   0  0  0  0  0  0  0  0  0  0  0  0
    2.4675   -0.6068    0.9188 H   0  0  0  0  0  0  0  0  0  0  0  0
   -0.1645    2.2322   -0.1137 H   0  0  0  0  0  0  0  0  0  0  0  0
   -2.8898   -0.5217   -0.5478 H   0  0  0  0  0  0  0  0  0  0  0  0
  1  2  1  0  0  0  0
  2  3  1  0  0  0  0
  3  4  1  0  0  0  0
  2  5  1  0  0  0  0
  1  6  1  0  0  0  0
  1  7  1  0  0  0  0
  1  8  1  0  0  0  0
  2  9  1  0  0  0  0
  3 10  1  0  0  0  0
  3 11  1  0  0  0  0
  4 12  1  0  0  0  0
  5 13  1  0  0  0  0
  6 14  1  0  0  0  0
M  END
