  5
 
 C          0.0002866984        0.9804336229       -0.0000375938
 Br        -1.6107898792       -0.0990626847       -0.0002104761
 Br         1.6110175930       -0.0993365391       -0.0001182199
 H         -0.0004358887        1.5909014892        0.9001740815
 H          0.0003178822        1.5890466252       -0.9013804139
           5
        -11.30931125
 C         -0.0000978142        0.9858026845       -0.0000005481
 Br        -1.6105190064       -0.0942212651       -0.0000000048
 Br         1.6105344728       -0.0942106045       -0.0000001629
 H         -0.0000190446        1.5953737838        0.9008820340
 H         -0.0000414566        1.5954031376       -0.9008622076
