  5
 
 C          0.1690000000       -0.0210000000        0.0450000000
 Br        -0.4990000000       -0.3020000000       -1.7480000000
 Br        -1.2000000000        0.5170000000        1.2990000000
 H          0.9260000000        0.7640000000        0.0070000000
 H          0.6040000000       -0.9590000000        0.3970000000
