  18
 
 C          0.8350000000       -0.3920000000       -2.1380000000
 O          1.9270000000       -1.0160000000       -1.4730000000
 C          1.8850000000       -1.0360000000       -0.1120000000
 C          2.9210000000       -1.6310000000        0.6080000000
 C          2.8780000000       -1.6520000000        2.0020000000
 C          1.8000000000       -1.0790000000        2.6760000000
 C          0.7640000000       -0.4840000000        1.9550000000
 C          0.8070000000       -0.4630000000        0.5610000000
 N          1.7560000000       -1.1000000000        4.0850000000
 H          0.9880000000       -0.4420000000       -3.2180000000
 H          0.7590000000        0.6500000000       -1.8170000000
 H         -0.0870000000       -0.9180000000       -1.8780000000
 H          3.7640000000       -2.0790000000        0.0890000000
 H          3.6910000000       -2.1180000000        2.5540000000
 H         -0.0820000000       -0.0350000000        2.4700000000
 H         -0.0030000000        0.0020000000        0.0050000000
 H          1.0020000000       -0.6440000000        4.5570000000
 H          2.5270000000       -1.4870000000        4.5910000000
