 xtb: 6.7.1 (edcfbbe)
          04072508503D

 19 19  0     0  0            999 V2000
   -2.8345    0.1458    0.0548 C   0  0  0  0  0  0  0  0  0  0  0  0
   -2.3156   -1.1255    0.2381 C   0  0  0  0  0  0  0  0  0  0  0  0
   -0.9496   -1.3300    0.1835 C   0  0  0  0  0  0  0  0  0  0  0  0
   -0.0735   -0.2749   -0.0573 C   0  0  0  0  0  0  0  0  0  0  0  0
   -0.6060    0.9941   -0.2434 C   0  0  0  0  0  0  0  0  0  0  0  0
   -1.9747    1.2022   -0.1856 C   0  0  0  0  0  0  0  0  0  0  0  0
    1.4001   -0.5687   -0.1243 C   0  0  0  0  0  0  0  0  0  0  0  0
    2.3194    0.6423    0.0096 C   0  0  0  0  0  0  0  0  0  0  0  0
    3.6491    0.1644    0.0988 O   0  0  0  0  0  0  0  0  0  0  0  0
   -3.9004    0.3103    0.0992 H   0  0  0  0  0  0  0  0  0  0  0  0
   -2.9768   -1.9583    0.4260 H   0  0  0  0  0  0  0  0  0  0  0  0
   -0.5503   -2.3234    0.3289 H   0  0  0  0  0  0  0  0  0  0  0  0
    0.0429    1.8339   -0.4357 H   0  0  0  0  0  0  0  0  0  0  0  0
   -2.3692    2.1970   -0.3307 H   0  0  0  0  0  0  0  0  0  0  0  0
    1.6645   -1.2706    0.6705 H   0  0  0  0  0  0  0  0  0  0  0  0
    1.6258   -1.0661   -1.0723 H   0  0  0  0  0  0  0  0  0  0  0  0
    2.2169    1.2986   -0.8642 H   0  0  0  0  0  0  0  0  0  0  0  0
    2.0576    1.2072    0.9148 H   0  0  0  0  0  0  0  0  0  0  0  0
    4.2557    0.9122    0.1791 H   0  0  0  0  0  0  0  0  0  0  0  0
  1  2  4  0  0  0  0
  2  3  4  0  0  0  0
  3  4  4  0  0  0  0
  4  5  4  0  0  0  0
  1  6  4  0  0  0  0
  5  6  4  0  0  0  0
  4  7  1  0  0  0  0
  7  8  1  0  0  0  0
  8  9  1  0  0  0  0
  1 10  1  0  0  0  0
  2 11  1  0  0  0  0
  3 12  1  0  0  0  0
  5 13  1  0  0  0  0
  6 14  1  0  0  0  0
  7 15  1  0  0  0  0
  7 16  1  0  0  0  0
  8 17  1  0  0  0  0
  8 18  1  0  0  0  0
  9 19  1  0  0  0  0
M  END
