  19
 
 C          3.4037882840        0.2962989500        0.0536658173
 C          2.1766261694       -0.6047367252       -0.0046739636
 C          0.8839706541        0.2059100497       -0.0031929176
 C         -0.3531075881       -0.6852282733       -0.0668403734
 C         -1.6402867790        0.1085926664       -0.1423763217
 O         -1.6726318632        1.2941225281       -0.3475330592
 C         -2.8888668759       -0.7151568200        0.0688117179
 H          4.3157302695       -0.2962934566        0.0574285546
 H          3.4285252033        0.9607114831       -0.8070813180
 H          3.3859748625        0.9059670150        0.9542540754
 H          2.1823600207       -1.2813436635        0.8536971310
 H          2.2199693650       -1.2172037599       -0.9087244468
 H          0.8731853644        0.8854895848       -0.8570152935
 H          0.8357608736        0.8180372060        0.8996903104
 H         -0.3089592518       -1.3175916815       -0.9588277362
 H         -0.3962477177       -1.3509217100        0.7982840992
 H         -2.9851555235       -0.9330159405        1.1316129562
 H         -3.7653291180       -0.1583112702       -0.2523914973
 H         -2.8268697358       -1.6586039924       -0.4669503152
          19
        -23.02672183
 C          3.4134886795        0.2994490392       -0.0765556217
 C          2.1855338686       -0.5887209400        0.0793949821
 C          0.8925594608        0.2098658068       -0.0576198889
 C         -0.3443466927       -0.6714112553        0.0898760918
 C         -1.6348189891        0.1175820674        0.0211076803
 O         -1.6748284375        1.3202641288        0.0520994155
 C         -2.8760535288       -0.7353746347       -0.0965065774
 H          3.4164419026        1.0806131431        0.6800936375
 H          4.3253807845       -0.2840618086        0.0276181872
 H          3.4185463248        0.7733752412       -1.0554819193
 H          2.2108547459       -1.0727322008        1.0588255276
 H          2.2085531014       -1.3754421466       -0.6789152079
 H          0.8656061618        0.7007304396       -1.0325308963
 H          0.8602761781        0.9934738852        0.7012185980
 H         -0.3612938452       -1.4462563414       -0.6800328275
 H         -0.3245956786       -1.1796717407        1.0586560215
 H         -3.7598608943       -0.1446084930        0.1281268622
 H         -2.9524795186       -1.0987075731       -1.1200381428
 H         -2.8215114792       -1.5950507256        0.5657233367
