 19

C      5.232000    -3.773000     0.938000
C      4.101000    -2.995000     0.286000
C      3.245000    -2.273000     1.326000
C      2.110000    -1.493000     0.667000
C      1.235000    -0.759000     1.673000
O      1.461000    -0.820000     2.887000
C      0.061000     0.054000     1.094000
H      5.840000    -4.287000     0.186000
H      5.885000    -3.095000     1.497000
H      4.843000    -4.521000     1.636000
H      3.478000    -3.685000    -0.295000
H      4.523000    -2.268000    -0.418000
H      3.873000    -1.589000     1.910000
H      2.830000    -3.002000     2.033000
H      2.521000    -0.747000    -0.022000
H      1.467000    -2.176000     0.102000
H     -0.850000    -0.553000     1.015000
H     -0.196000     0.930000     1.702000
H      0.285000     0.425000     0.086000
