 22

C      1.885000    -1.036000    -0.112000
C      2.921000    -1.631000     0.608000
C      2.878000    -1.652000     2.002000
C      1.800000    -1.079000     2.676000
C      0.764000    -0.484000     1.955000
C      0.807000    -0.463000     0.561000
Cl    -0.440000     0.253000    -0.403000
Cl    -0.589000     0.236000     2.782000
Cl     1.748000    -1.107000     4.417000
Cl     4.184000    -2.398000     2.882000
C      4.019000    -2.213000    -0.143000
C      3.952000    -3.550000    -0.534000
C      5.001000    -4.119000    -1.257000
C      6.116000    -3.350000    -1.589000
C      6.183000    -2.013000    -1.198000
C      5.134000    -1.444000    -0.475000
Cl     5.209000     0.225000     0.021000
Cl     7.580000    -1.064000    -1.619000
Cl     7.377000    -4.126000    -2.487000
Cl     2.597000    -4.559000    -0.156000
H      1.919000    -1.020000    -1.201000
H      4.948000    -5.162000    -1.562000
