13
 xtb: 6.7.1 (edcfbbe)
C            1.84608710434005       -1.21074711497297       -0.10794013021930
O            0.93931976647859       -0.29108534179851       -0.80725193918624
S           -0.04440145192231        0.58158347645456        0.12372805617520
O           -0.83732406292991        1.35936255104510       -0.82080667085624
O            0.69208570717788        1.22712134977488        1.20395747585456
O           -0.94824723902145       -0.52686593555065        0.86534840125391
C           -1.81545758879291       -1.33801187788083        0.00086244291753
H            1.26855651025768       -1.96205882593036        0.43503791746595
H            2.50292498890802       -0.65132490960844        0.56050091283772
H            2.42115253747745       -1.67585206217617       -0.90723689535907
H           -2.57763735147707       -0.70488359073451       -0.45704800605282
H           -2.27100241289287       -2.05645224935798        0.68107313036532
H           -1.21790375591763       -1.85397222616546       -0.75425451275513
