26
 xtb: 6.7.1 (edcfbbe)
C           -1.59755687542684        0.14741993582171        1.52938080122839
C           -1.27300722381308       -0.46587750883740        0.16215263252623
C           -2.51579709700489       -0.38454883133859       -0.72957237353660
C           -0.04730175658693        0.16327102881197       -0.55698749932843
C            0.05284527844208        1.67471905646754       -0.33414114619058
C            1.27361953112006       -0.59081983692362       -0.26632773639845
C            2.43080777937985       -0.04154500479993       -1.10494253862049
C            1.67612576069052       -0.63491566283870        1.20952764406399
H           -2.37029931564028       -0.44573397611001        2.03096766978321
H           -0.73071585565473        0.19427996786797        2.19311021016426
H           -1.98813832692607        1.16522721473042        1.41881607080296
H           -1.04433423295166       -1.53049612593763        0.31590716531813
H           -2.36749853311787       -0.92593985881061       -1.67002239434188
H           -2.74905509258550        0.65913469584960       -0.97449104808756
H           -3.39196535093533       -0.81040417503133       -0.22746128226279
H           -0.22070070343032        0.01630393543337       -1.63349885375298
H           -0.90930008159348        2.16044317239057       -0.52906515293525
H            0.78543614742282        2.12520704648760       -1.01021392401996
H            0.34680352761413        1.92182230290965        0.69109730249147
H            1.10006392914625       -1.62864507374926       -0.58732156177603
H            2.74546077715257        0.94703444156987       -0.75235126825858
H            3.30061696446812       -0.70415068157027       -1.03965691699635
H            2.15334820104436        0.04918583657082       -2.16147601604483
H            0.94413763444343       -1.17217280725703        1.81922123614609
H            1.79632857814635        0.37214859505134        1.62500228396631
H            2.63633699067347       -1.15184034606385        1.31955375166858
