 xtb: 6.7.1 (edcfbbe)
          04112512263D

 16 15  0     0  0            999 V2000
   -1.7379    0.9108   -0.0423 C   0  0  0  0  0  0  0  0  0  0  0  0
   -1.2148   -0.5223   -0.1831 C   0  0  0  0  0  0  0  0  0  0  0  0
   -0.0008   -0.8398    0.5482 N   0  0  0  0  0  0  0  0  0  0  0  0
    1.2695   -0.5706   -0.0961 C   0  0  0  0  0  0  0  0  0  0  0  0
    1.6865    0.8991   -0.2310 C   0  0  0  0  0  0  0  0  0  0  0  0
   -1.8770    1.1566    1.0088 H   0  0  0  0  0  0  0  0  0  0  0  0
   -1.0535    1.6331   -0.4778 H   0  0  0  0  0  0  0  0  0  0  0  0
   -2.6972    1.0004   -0.5457 H   0  0  0  0  0  0  0  0  0  0  0  0
   -1.0414   -0.7544   -1.2368 H   0  0  0  0  0  0  0  0  0  0  0  0
   -1.9894   -1.2054    0.1854 H   0  0  0  0  0  0  0  0  0  0  0  0
   -0.0267   -0.4063    1.4651 H   0  0  0  0  0  0  0  0  0  0  0  0
    2.0284   -1.0947    0.4938 H   0  0  0  0  0  0  0  0  0  0  0  0
    1.2392   -1.0335   -1.0864 H   0  0  0  0  0  0  0  0  0  0  0  0
    1.6044    1.4056    0.7288 H   0  0  0  0  0  0  0  0  0  0  0  0
    2.7197    0.9557   -0.5637 H   0  0  0  0  0  0  0  0  0  0  0  0
    1.0677    1.4203   -0.9566 H   0  0  0  0  0  0  0  0  0  0  0  0
  1  2  1  0  0  0  0
  2  3  1  0  0  0  0
  3  4  1  0  0  0  0
  4  5  1  0  0  0  0
  1  6  1  0  0  0  0
  1  7  1  0  0  0  0
  1  8  1  0  0  0  0
  2  9  1  0  0  0  0
  2 10  1  0  0  0  0
  3 11  1  0  0  0  0
  4 12  1  0  0  0  0
  4 13  1  0  0  0  0
  5 14  1  0  0  0  0
  5 15  1  0  0  0  0
  5 16  1  0  0  0  0
M  END
