19
 xtb: 6.7.1 (edcfbbe)
C           -2.57354458604829       -0.40654874371337        0.19843106505069
C           -1.72816587570913       -1.24086058279743       -0.52893251160567
C           -0.42163654144054       -0.84392031100975       -0.80636582281629
C            0.06179696100296        0.39041851467184       -0.36191664375830
C           -0.79579487596653        1.21840621661785        0.37067404206773
C           -2.10254743336569        0.82611235079122        0.64793138680597
C            1.48515928558971        0.80363980308638       -0.61973435762695
C            2.41941701276349        0.46594065342723        0.54358697114366
O            2.48105387483480       -0.94322379801451        0.81710635998654
H           -3.59346955028553       -0.71232347194319        0.40980703996538
H           -2.08724243489775       -2.20187939877041       -0.88493056325521
H            0.23145550124038       -1.49627310446152       -1.37980704832833
H           -0.43479977683220        2.18197726653492        0.72186932023056
H           -2.75564968808809        1.48574982961474        1.21127850480693
H            1.86251167516959        0.31499749935588       -1.52632604667781
H            1.54006424799569        1.88713745024535       -0.78028690687947
H            3.42369974286365        0.85511134001647        0.32854498264327
H            2.05974966947152        0.93401984149732        1.46525604828039
H            2.79281536965152       -1.37857441317261        0.01270967010570
