  21
 
 C          1.2250000000       -0.5760000000       -5.4130000000
 C          0.2820000000        0.5840000000       -5.1800000000
 O         -0.6780000000        0.2120000000       -4.2000000000
 C         -1.5950000000        1.2670000000       -3.9400000000
 C         -2.5900000000        0.8100000000       -2.8900000000
 O         -1.8830000000        0.4730000000       -1.6920000000
 C         -2.6580000000        0.0420000000       -0.6560000000
 O         -3.8750000000       -0.0770000000       -0.6610000000
 C         -1.7880000000       -0.2730000000        0.5230000000
 H          1.9790000000       -0.3220000000       -6.1640000000
 H          1.7330000000       -0.8540000000       -4.4830000000
 H          0.6740000000       -1.4600000000       -5.7500000000
 H         -0.2420000000        0.8440000000       -6.1050000000
 H          0.8310000000        1.4600000000       -4.8210000000
 H         -1.0260000000        2.1350000000       -3.5930000000
 H         -2.1100000000        1.5120000000       -4.8730000000
 H         -3.1370000000       -0.0770000000       -3.2240000000
 H         -3.2960000000        1.6130000000       -2.6560000000
 H         -1.6690000000        0.6170000000        1.1450000000
 H         -0.8160000000       -0.6370000000        0.1800000000
 H         -2.2600000000       -1.0570000000        1.1220000000
