 xtb: 6.7.1 (edcfbbe)
          04112512193D

 22 23  0     0  0            999 V2000
   -3.2674    0.9199   -0.1147 C   0  0  0  0  0  0  0  0  0  0  0  0
   -2.2865    1.2345    0.8113 C   0  0  0  0  0  0  0  0  0  0  0  0
   -1.1360    0.4709    0.8892 C   0  0  0  0  0  0  0  0  0  0  0  0
   -0.9516   -0.6121    0.0383 C   0  0  0  0  0  0  0  0  0  0  0  0
   -1.9359   -0.9191   -0.8903 C   0  0  0  0  0  0  0  0  0  0  0  0
   -3.0908   -0.1590   -0.9638 C   0  0  0  0  0  0  0  0  0  0  0  0
    0.3119   -1.4368    0.1255 C   0  0  0  0  0  0  0  0  0  0  0  0
    1.4874   -0.6022    0.0791 N   0  0  0  0  0  0  0  0  0  0  0  0
    2.2796   -0.2381    1.1283 C   0  0  0  0  0  0  0  0  0  0  0  0
    3.2179    0.6117    0.6181 C   0  0  0  0  0  0  0  0  0  0  0  0
    3.0138    0.7823   -0.7169 N   0  0  0  0  0  0  0  0  0  0  0  0
    1.9699    0.0466   -1.0017 C   0  0  0  0  0  0  0  0  0  0  0  0
   -4.1655    1.5154   -0.1747 H   0  0  0  0  0  0  0  0  0  0  0  0
   -2.4180    2.0755    1.4751 H   0  0  0  0  0  0  0  0  0  0  0  0
   -0.3717    0.7217    1.6107 H   0  0  0  0  0  0  0  0  0  0  0  0
   -1.8011   -1.7573   -1.5579 H   0  0  0  0  0  0  0  0  0  0  0  0
   -3.8511   -0.4071   -1.6887 H   0  0  0  0  0  0  0  0  0  0  0  0
    0.3304   -1.9924    1.0672 H   0  0  0  0  0  0  0  0  0  0  0  0
    0.3487   -2.1487   -0.7033 H   0  0  0  0  0  0  0  0  0  0  0  0
    2.1247   -0.6106    2.1195 H   0  0  0  0  0  0  0  0  0  0  0  0
    4.0242    1.1096    1.1182 H   0  0  0  0  0  0  0  0  0  0  0  0
    1.5387   -0.0430   -1.9784 H   0  0  0  0  0  0  0  0  0  0  0  0
  1  2  4  0  0  0  0
  2  3  4  0  0  0  0
  3  4  4  0  0  0  0
  4  5  4  0  0  0  0
  1  6  4  0  0  0  0
  5  6  4  0  0  0  0
  4  7  1  0  0  0  0
  7  8  1  0  0  0  0
  8  9  4  0  0  0  0
  9 10  2  0  0  0  0
 10 11  4  0  0  0  0
  8 12  4  0  0  0  0
 11 12  2  0  0  0  0
  1 13  1  0  0  0  0
  2 14  1  0  0  0  0
  3 15  1  0  0  0  0
  5 16  1  0  0  0  0
  6 17  1  0  0  0  0
  7 18  1  0  0  0  0
  7 19  1  0  0  0  0
  9 20  1  0  0  0  0
 10 21  1  0  0  0  0
 12 22  1  0  0  0  0
M  END
