 xtb: 6.7.1 (edcfbbe)
          04112511573D

 14 13  0     0  0            999 V2000
    2.0683   -0.5338   -0.0054 C   0  0  0  0  0  0  0  0  0  0  0  0
    1.2665    0.5928    0.2894 O   0  0  0  0  0  0  0  0  0  0  0  0
   -0.0075    0.5901   -0.3210 C   0  0  0  0  0  0  0  0  0  0  0  0
   -0.9911   -0.4170    0.2885 C   0  0  0  0  0  0  0  0  0  0  0  0
   -2.3331   -0.1361   -0.2003 N   0  0  0  0  0  0  0  0  0  0  0  0
    1.6778   -1.4420    0.4626 H   0  0  0  0  0  0  0  0  0  0  0  0
    3.0525   -0.3130    0.4008 H   0  0  0  0  0  0  0  0  0  0  0  0
    2.1413   -0.6861   -1.0876 H   0  0  0  0  0  0  0  0  0  0  0  0
   -0.4004    1.5973   -0.1703 H   0  0  0  0  0  0  0  0  0  0  0  0
    0.0944    0.4053   -1.4008 H   0  0  0  0  0  0  0  0  0  0  0  0
   -0.6550   -1.4432    0.0636 H   0  0  0  0  0  0  0  0  0  0  0  0
   -0.9894   -0.2885    1.3743 H   0  0  0  0  0  0  0  0  0  0  0  0
   -2.9881   -0.7950    0.2044 H   0  0  0  0  0  0  0  0  0  0  0  0
   -2.3618   -0.2553   -1.2074 H   0  0  0  0  0  0  0  0  0  0  0  0
  1  2  1  0  0  0  0
  2  3  1  0  0  0  0
  3  4  1  0  0  0  0
  4  5  1  0  0  0  0
  1  6  1  0  0  0  0
  1  7  1  0  0  0  0
  1  8  1  0  0  0  0
  3  9  1  0  0  0  0
  3 10  1  0  0  0  0
  4 11  1  0  0  0  0
  4 12  1  0  0  0  0
  5 13  1  0  0  0  0
  5 14  1  0  0  0  0
M  END
