 xtb: 6.7.1 (edcfbbe)
          04112511133D

 22 22  0     0  0            999 V2000
   -2.1384   -1.0018    1.0211 C   0  0  0  0  0  0  0  0  0  0  0  0
   -2.1010   -0.2135   -0.2853 C   0  0  0  0  0  0  0  0  0  0  0  0
   -3.4938    0.3048   -0.6331 C   0  0  0  0  0  0  0  0  0  0  0  0
   -1.1148    0.9668   -0.1908 C   0  0  0  0  0  0  0  0  0  0  0  0
    0.2939    0.4894   -0.0521 C   0  0  0  0  0  0  0  0  0  0  0  0
    0.9384    0.4050    1.1845 C   0  0  0  0  0  0  0  0  0  0  0  0
    2.1737   -0.0521    1.3099 N   0  0  0  0  0  0  0  0  0  0  0  0
    2.7918   -0.4307    0.1977 C   0  0  0  0  0  0  0  0  0  0  0  0
    2.1666   -0.3421   -1.0375 C   0  0  0  0  0  0  0  0  0  0  0  0
    0.9288    0.1126   -1.1604 N   0  0  0  0  0  0  0  0  0  0  0  0
   -2.8280   -1.8380    0.9366 H   0  0  0  0  0  0  0  0  0  0  0  0
   -2.4700   -0.3655    1.8388 H   0  0  0  0  0  0  0  0  0  0  0  0
   -1.1545   -1.3958    1.2676 H   0  0  0  0  0  0  0  0  0  0  0  0
   -1.7574   -0.8739   -1.0883 H   0  0  0  0  0  0  0  0  0  0  0  0
   -3.4810    0.8357   -1.5814 H   0  0  0  0  0  0  0  0  0  0  0  0
   -4.1943   -0.5226   -0.7121 H   0  0  0  0  0  0  0  0  0  0  0  0
   -3.8489    0.9834    0.1391 H   0  0  0  0  0  0  0  0  0  0  0  0
   -1.3797    1.5921    0.6625 H   0  0  0  0  0  0  0  0  0  0  0  0
   -1.1904    1.5539   -1.1063 H   0  0  0  0  0  0  0  0  0  0  0  0
    0.4516    0.7150    2.0987 H   0  0  0  0  0  0  0  0  0  0  0  0
    3.7988   -0.8041    0.3104 H   0  0  0  0  0  0  0  0  0  0  0  0
    2.6598   -0.6377   -1.9526 H   0  0  0  0  0  0  0  0  0  0  0  0
  1  2  1  0  0  0  0
  2  3  1  0  0  0  0
  2  4  1  0  0  0  0
  4  5  1  0  0  0  0
  5  6  4  0  0  0  0
  6  7  4  0  0  0  0
  7  8  4  0  0  0  0
  8  9  4  0  0  0  0
  5 10  4  0  0  0  0
  9 10  4  0  0  0  0
  1 11  1  0  0  0  0
  1 12  1  0  0  0  0
  1 13  1  0  0  0  0
  2 14  1  0  0  0  0
  3 15  1  0  0  0  0
  3 16  1  0  0  0  0
  3 17  1  0  0  0  0
  4 18  1  0  0  0  0
  4 19  1  0  0  0  0
  6 20  1  0  0  0  0
  8 21  1  0  0  0  0
  9 22  1  0  0  0  0
M  END
