 xtb: 6.7.1 (edcfbbe)
          04112511493D

 21 20  0     0  0            999 V2000
    1.8244    1.1110    0.2959 C   0  0  0  0  0  0  0  0  0  0  0  0
    1.3916   -0.1853   -0.3883 C   0  0  0  0  0  0  0  0  0  0  0  0
    2.0530   -0.3628   -1.2465 H   0  0  0  0  0  0  0  0  0  0  0  0
   -0.0507   -0.1399   -0.9300 C   0  0  0  0  0  0  0  0  0  0  0  0
   -1.1380    0.4696   -0.0343 C   0  0  0  0  0  0  0  0  0  0  0  0
   -2.4517    0.5039   -0.8173 C   0  0  0  0  0  0  0  0  0  0  0  0
   -1.3414   -0.3023    1.2689 C   0  0  0  0  0  0  0  0  0  0  0  0
    1.6280   -1.3151    0.4351 O   0  0  0  0  0  0  0  0  0  0  0  0
    1.6811    1.9498   -0.3784 H   0  0  0  0  0  0  0  0  0  0  0  0
    1.2528    1.2837    1.2040 H   0  0  0  0  0  0  0  0  0  0  0  0
    2.8773    1.0474    0.5601 H   0  0  0  0  0  0  0  0  0  0  0  0
   -0.0259    0.4315   -1.8601 H   0  0  0  0  0  0  0  0  0  0  0  0
   -0.3320   -1.1657   -1.1825 H   0  0  0  0  0  0  0  0  0  0  0  0
   -0.8626    1.5014    0.2053 H   0  0  0  0  0  0  0  0  0  0  0  0
   -2.7713   -0.5061   -1.0648 H   0  0  0  0  0  0  0  0  0  0  0  0
   -2.3347    1.0627   -1.7427 H   0  0  0  0  0  0  0  0  0  0  0  0
   -3.2342    0.9769   -0.2287 H   0  0  0  0  0  0  0  0  0  0  0  0
   -2.2415    0.0475    1.7705 H   0  0  0  0  0  0  0  0  0  0  0  0
   -1.4565   -1.3652    1.0678 H   0  0  0  0  0  0  0  0  0  0  0  0
   -0.5100   -0.1578    1.9544 H   0  0  0  0  0  0  0  0  0  0  0  0
    1.1057   -1.2297    1.2442 H   0  0  0  0  0  0  0  0  0  0  0  0
  1  2  1  0  0  0  0
  2  3  1  0  0  0  0
  2  4  1  0  0  0  0
  4  5  1  0  0  0  0
  5  6  1  0  0  0  0
  5  7  1  0  0  0  0
  2  8  1  0  0  0  0
  1  9  1  0  0  0  0
  1 10  1  0  0  0  0
  1 11  1  0  0  0  0
  4 12  1  0  0  0  0
  4 13  1  0  0  0  0
  5 14  1  0  0  0  0
  6 15  1  0  0  0  0
  6 16  1  0  0  0  0
  6 17  1  0  0  0  0
  7 18  1  0  0  0  0
  7 19  1  0  0  0  0
  7 20  1  0  0  0  0
  8 21  1  0  0  0  0
M  END
