21
 xtb: 6.7.1 (edcfbbe)
C            1.85310452654904        1.09911239247159        0.27702379857275
C            1.38645388717512       -0.18483088407870       -0.39092380940792
H            2.04338885918167       -0.39751514327018       -1.24253898426994
C           -0.04484299199180       -0.11612894624904       -0.93561059964344
C           -1.14834256772690        0.45870596237836       -0.03463984265843
C           -2.46156754420852        0.49380697228582       -0.82150433163485
C           -1.34999802647639       -0.31877112176977        1.26902992044704
O            1.59462260845254       -1.32243912264766        0.48624216523352
H            1.71719005734056        1.95203895402815       -0.39642937912780
H            1.28760640353603        1.29657212471110        1.19413986698286
H            2.91422863564848        1.03099886677628        0.53556115111943
H           -0.00547661277277        0.49617335117665       -1.84660128372167
H           -0.33315643230621       -1.12743082345683       -1.25503141296532
H           -0.88194461561426        1.49328908148748        0.22071547302122
H           -2.78105404935587       -0.52340222719040       -1.08025747283686
H           -2.35393968096776        1.05951978648236       -1.75335420413302
H           -3.26110423822392        0.95691044865813       -0.23328208857902
H           -2.23753637727668        0.04862518685069        1.79659127901481
H           -1.49841944353023       -1.38684266068875        1.06898830905172
H           -0.50742518547851       -0.20957329871484        1.96040671988223
H            1.13155494792992       -1.14332159422795        1.31422640368887
