 14

C      1.885000    -1.036000    -0.112000
C      2.921000    -1.631000     0.608000
C      2.878000    -1.652000     2.002000
C      1.800000    -1.079000     2.676000
C      0.764000    -0.484000     1.955000
C      0.807000    -0.463000     0.561000
O     -0.288000     0.077000     2.612000
C      3.940000    -2.261000     2.740000
N      4.803000    -2.757000     3.340000
H      1.918000    -1.020000    -1.198000
H      3.755000    -2.074000     0.069000
H      1.758000    -1.089000     3.763000
H      0.003000    -0.000000    -0.005000
H     -0.922000     0.447000     1.978000
