 xtb: 6.7.1 (edcfbbe)
          04112512423D

 17 16  0     0  0            999 V2000
   -2.0518    1.2188    0.6978 C   0  0  0  0  0  0  0  0  0  0  0  0
   -1.9639   -0.0517   -0.1361 C   0  0  0  0  0  0  0  0  0  0  0  0
   -0.5696   -0.6039   -0.2861 C   0  0  0  0  0  0  0  0  0  0  0  0
   -0.3229   -1.6621   -0.8359 O   0  0  0  0  0  0  0  0  0  0  0  0
    0.3640    0.1769    0.2289 O   0  0  0  0  0  0  0  0  0  0  0  0
    1.7335   -0.2459    0.1256 C   0  0  0  0  0  0  0  0  0  0  0  0
    2.6248    0.9571    0.3686 C   0  0  0  0  0  0  0  0  0  0  0  0
   -1.6819    1.0418    1.7038 H   0  0  0  0  0  0  0  0  0  0  0  0
   -1.4596    2.0118    0.2508 H   0  0  0  0  0  0  0  0  0  0  0  0
   -3.0863    1.5442    0.7575 H   0  0  0  0  0  0  0  0  0  0  0  0
   -2.3404    0.1233   -1.1468 H   0  0  0  0  0  0  0  0  0  0  0  0
   -2.5760   -0.8472    0.2941 H   0  0  0  0  0  0  0  0  0  0  0  0
    1.9045   -1.0290    0.8712 H   0  0  0  0  0  0  0  0  0  0  0  0
    1.8900   -0.6787   -0.8681 H   0  0  0  0  0  0  0  0  0  0  0  0
    2.4399    1.7188   -0.3832 H   0  0  0  0  0  0  0  0  0  0  0  0
    2.4229    1.3761    1.3497 H   0  0  0  0  0  0  0  0  0  0  0  0
    3.6638    0.6490    0.3167 H   0  0  0  0  0  0  0  0  0  0  0  0
  1  2  1  0  0  0  0
  2  3  1  0  0  0  0
  3  4  2  0  0  0  0
  3  5  1  0  0  0  0
  5  6  1  0  0  0  0
  6  7  1  0  0  0  0
  1  8  1  0  0  0  0
  1  9  1  0  0  0  0
  1 10  1  0  0  0  0
  2 11  1  0  0  0  0
  2 12  1  0  0  0  0
  6 13  1  0  0  0  0
  6 14  1  0  0  0  0
  7 15  1  0  0  0  0
  7 16  1  0  0  0  0
  7 17  1  0  0  0  0
M  END
