 xtb: 6.7.1 (edcfbbe)
          04112511553D

 24 24  0     0  0            999 V2000
   -2.2146    0.2820   -1.1284 C   0  0  0  0  0  0  0  0  0  0  0  0
   -2.1866   -0.5986    0.1149 C   0  0  0  0  0  0  0  0  0  0  0  0
   -1.2265   -0.1451    1.2196 C   0  0  0  0  0  0  0  0  0  0  0  0
    0.2783   -0.0641    0.9125 C   0  0  0  0  0  0  0  0  0  0  0  0
    0.8627   -1.1715    0.0101 C   0  0  0  0  0  0  0  0  0  0  0  0
    1.8517   -0.4763   -0.9407 C   0  0  0  0  0  0  0  0  0  0  0  0
    2.0905    0.9027   -0.3272 C   0  0  0  0  0  0  0  0  0  0  0  0
    0.7301    1.2527    0.2648 C   0  0  0  0  0  0  0  0  0  0  0  0
   -2.3880    1.3211   -0.8570 H   0  0  0  0  0  0  0  0  0  0  0  0
   -1.2814    0.2123   -1.6798 H   0  0  0  0  0  0  0  0  0  0  0  0
   -3.0192   -0.0361   -1.7886 H   0  0  0  0  0  0  0  0  0  0  0  0
   -3.1883   -0.6097    0.5532 H   0  0  0  0  0  0  0  0  0  0  0  0
   -1.9597   -1.6263   -0.1750 H   0  0  0  0  0  0  0  0  0  0  0  0
   -1.5409    0.8419    1.5687 H   0  0  0  0  0  0  0  0  0  0  0  0
   -1.3616   -0.8390    2.0539 H   0  0  0  0  0  0  0  0  0  0  0  0
    0.7880   -0.1224    1.8815 H   0  0  0  0  0  0  0  0  0  0  0  0
    1.3689   -1.9226    0.6166 H   0  0  0  0  0  0  0  0  0  0  0  0
    0.0880   -1.6811   -0.5569 H   0  0  0  0  0  0  0  0  0  0  0  0
    2.7756   -1.0413   -1.0572 H   0  0  0  0  0  0  0  0  0  0  0  0
    1.4040   -0.3608   -1.9291 H   0  0  0  0  0  0  0  0  0  0  0  0
    2.8353    0.8357    0.4679 H   0  0  0  0  0  0  0  0  0  0  0  0
    2.4337    1.6314   -1.0604 H   0  0  0  0  0  0  0  0  0  0  0  0
    0.7846    2.0615    0.9932 H   0  0  0  0  0  0  0  0  0  0  0  0
    0.0483    1.5523   -0.5279 H   0  0  0  0  0  0  0  0  0  0  0  0
  1  2  1  0  0  0  0
  2  3  1  0  0  0  0
  3  4  1  0  0  0  0
  4  5  1  0  0  0  0
  5  6  1  0  0  0  0
  6  7  1  0  0  0  0
  4  8  1  0  0  0  0
  7  8  1  0  0  0  0
  1  9  1  0  0  0  0
  1 10  1  0  0  0  0
  1 11  1  0  0  0  0
  2 12  1  0  0  0  0
  2 13  1  0  0  0  0
  3 14  1  0  0  0  0
  3 15  1  0  0  0  0
  4 16  1  0  0  0  0
  5 17  1  0  0  0  0
  5 18  1  0  0  0  0
  6 19  1  0  0  0  0
  6 20  1  0  0  0  0
  7 21  1  0  0  0  0
  7 22  1  0  0  0  0
  8 23  1  0  0  0  0
  8 24  1  0  0  0  0
M  END
