 xtb: 6.7.1 (edcfbbe)
          04112511363D

 14 13  0     0  0            999 V2000
   -1.4432    0.3908   -0.2077 C   0  0  0  0  0  0  0  0  0  0  0  0
    0.0120    0.3653    0.2800 C   0  0  0  0  0  0  0  0  0  0  0  0
    0.8072   -0.7277   -0.4382 C   0  0  0  0  0  0  0  0  0  0  0  0
    2.0795   -0.8154    0.1711 O   0  0  0  0  0  0  0  0  0  0  0  0
    0.5560    1.6448    0.0460 O   0  0  0  0  0  0  0  0  0  0  0  0
   -2.1466   -0.7855    0.1003 O   0  0  0  0  0  0  0  0  0  0  0  0
   -1.4524    0.4789   -1.2963 H   0  0  0  0  0  0  0  0  0  0  0  0
   -1.9308    1.2773    0.2132 H   0  0  0  0  0  0  0  0  0  0  0  0
    0.0355    0.1463    1.3603 H   0  0  0  0  0  0  0  0  0  0  0  0
    0.9002   -0.4584   -1.4979 H   0  0  0  0  0  0  0  0  0  0  0  0
    0.2579   -1.6722   -0.3526 H   0  0  0  0  0  0  0  0  0  0  0  0
    2.5935   -1.5130   -0.2562 H   0  0  0  0  0  0  0  0  0  0  0  0
    1.5052    1.6053    0.2365 H   0  0  0  0  0  0  0  0  0  0  0  0
   -2.2837   -0.8383    1.0569 H   0  0  0  0  0  0  0  0  0  0  0  0
  1  2  1  0  0  0  0
  2  3  1  0  0  0  0
  3  4  1  0  0  0  0
  2  5  1  0  0  0  0
  1  6  1  0  0  0  0
  1  7  1  0  0  0  0
  1  8  1  0  0  0  0
  2  9  1  0  0  0  0
  3 10  1  0  0  0  0
  3 11  1  0  0  0  0
  4 12  1  0  0  0  0
  5 13  1  0  0  0  0
  6 14  1  0  0  0  0
M  END
