  8
 
 C         -0.0043593150       -1.8180245985       -0.1653701980
 C         -0.0001155439       -0.4362252022        0.4457475036
 Cl        -1.4515351430        0.4711770757       -0.0506993260
 Cl         1.4497386304        0.4675214995       -0.0621920721
 H          0.8852268393       -2.3585145539        0.1487767249
 H         -0.8873274218       -2.3602334652        0.1640363838
 H         -0.0137185322       -1.7531534320       -1.2502800952
 H          0.0040556674       -0.4573977609        1.5372596687
           8
        -15.41955448
 C         -0.0000674664       -1.8105605165       -0.1606842443
 C         -0.0000145592       -0.4273646546        0.4466701775
 Cl        -1.4511715576        0.4771604290       -0.0572138179
 Cl         1.4512061835        0.4771096152       -0.0572150646
 H          0.8859651818       -2.3518390153        0.1634400173
 H         -0.8872147268       -2.3510728178        0.1616723454
 H          0.0010180399       -1.7485307144       -1.2461557510
 H         -0.0000089769       -0.4460836441        1.5380392486
