  24
 
 C         -3.2012735100        0.5948146388        0.0220716311
 O         -1.9534302223       -0.0039266213        0.2653120765
 C         -0.9385269335        0.5033424984       -0.5537689669
 C          0.4309884714       -0.0187366859       -0.0511990155
 O          0.4012135820       -1.3269732057        0.3963190507
 C         -0.0845548187       -2.2944558669       -0.5160673834
 O          0.7939044203        0.8070984933        0.9983613591
 C          1.9184333975        0.3688616832        1.7519981084
 O          1.3906015686        0.0229906273       -1.0975450596
 C          1.6896620555        1.3000254482       -1.6202692690
 H         -3.9055215321        0.1241835081        0.7046010940
 H         -3.5280731046        0.4312174489       -1.0131897511
 H         -3.1682843998        1.6739960167        0.2147032719
 H         -1.0824736638        0.1924807564       -1.6011097733
 H         -0.9094008962        1.6006688732       -0.5060583368
 H          0.1453573306       -3.2552614450       -0.0602575372
 H          0.4226623810       -2.2103317229       -1.4797532511
 H         -1.1653968651       -2.1991163018       -0.6457491213
 H          2.1939091576        1.2140056130        2.3793053929
 H          2.7443737587        0.1015561506        1.0890541014
 H          1.6530223516       -0.4914083879        2.3675773100
 H          2.6343713897        1.1889405543       -2.1496051203
 H          1.7973392760        2.0362103303       -0.8201318396
 H          0.9168692722        1.6344840610       -2.3201517747
          24
        -36.23997527
 C         -2.4992609365        1.0574703898       -0.2047498344
 O         -2.0726878477       -0.1951727947       -0.6944424357
 C         -0.7486393021       -0.2222113909       -1.1423934447
 C          0.3037714768       -0.0642555767       -0.0056020856
 O         -0.1295592145       -0.5720063065        1.2112190710
 C         -0.4457809056       -1.9539370578        1.2376095133
 O          0.5243915007        1.2988520477        0.1421930866
 C          1.3574199059        1.6613036593        1.2376306265
 O          1.5025377068       -0.7452876456       -0.3309555422
 C          2.1702626695       -0.3034407081       -1.4944605756
 H         -3.5575330366        0.9437596394        0.0224464024
 H         -2.3626365545        1.8373949009       -0.9624630941
 H         -1.9539148373        1.3409249363        0.6983224232
 H         -0.6108497521       -1.1983237994       -1.6131935591
 H         -0.5630172339        0.5768850751       -1.8740147409
 H         -0.6108656049       -2.1853357644        2.2877696578
 H          0.3846905625       -2.5474411573        0.8512841315
 H         -1.3540494307       -2.1567776313        0.6655140665
 H          2.2716430112        1.0642712159        1.2388001777
 H          0.8309046549        1.5184543414        2.1826533007
 H          1.5915459741        2.7131966922        1.0891302168
 H          1.6944118407       -0.6939935820       -2.3992589580
 H          3.1833897944       -0.6946077610       -1.4192909520
 H          2.1974554193        0.7879040433       -1.5419314741
