  10
 
 C         -1.2683223702        0.6862723103        0.0421122400
 C          0.0001531210       -0.1013117928       -0.1770861199
 O          0.0005442417       -1.2600634305       -0.5018798241
 C          1.2681454306        0.6861428119        0.0452628059
 H         -1.2938023372        1.0690564972        1.0598170374
 H         -1.2965816812        1.5351549407       -0.6375057041
 H         -2.1365221567        0.0560034303       -0.1300769515
 H          1.2981148041        1.0534047305        1.0688034202
 H          1.2909786265        1.5453473765       -0.6213895656
 H          2.1368105122        0.0600441659       -0.1399802215
          10
        -13.53417884
 C         -1.2676513181        0.7047533962       -0.0021033811
 C         -0.0000058929       -0.1136634273       -0.0000061114
 O          0.0001182202       -1.3171502675        0.0000028532
 C          1.2675392459        0.7049477057        0.0021144923
 H         -2.1253579246        0.0713753990       -0.2114205355
 H         -1.3958291977        1.1559878093        0.9804405321
 H         -1.2059116938        1.5041916838       -0.7358601707
 H          2.1252624111        0.0717106510        0.2117763566
 H          1.2055425200        1.5046523238        0.7355440525
 H          1.3958230327        1.1558240513       -0.9805851082
