 10

C     -0.703000    -0.411000     0.729000
C     -0.057000    -0.447000     2.087000
O      0.101000    -1.502000     2.699000
C      0.385000     0.872000     2.662000
H     -1.782000    -0.284000     0.840000
H     -0.284000     0.412000     0.146000
H     -0.509000    -1.351000     0.204000
H     -0.430000     1.312000     3.244000
H      0.648000     1.555000     1.851000
H      1.245000     0.717000     3.318000
