  10
 
 C         -0.7030000000       -0.4110000000        0.7290000000
 C         -0.0570000000       -0.4470000000        2.0870000000
 O          0.1010000000       -1.5020000000        2.6990000000
 C          0.3850000000        0.8720000000        2.6620000000
 H         -1.7820000000       -0.2840000000        0.8400000000
 H         -0.2840000000        0.4120000000        0.1460000000
 H         -0.5090000000       -1.3510000000        0.2040000000
 H         -0.4300000000        1.3120000000        3.2440000000
 H          0.6480000000        1.5550000000        1.8510000000
 H          1.2450000000        0.7170000000        3.3180000000
