22
CONF3
C -4.2760948577 0.8112101027 0.0012261972
O -3.4834762927 -0.3907069157 -0.0011836944
C -2.1310848226 -0.2563227673 -0.0004474708
C -1.4027988078 -1.4549595299 -0.0042637086
C -0.0235695681 -1.4210793352 -0.0043472688
C 0.6629340184 -0.1965233529 -0.0001413980
C -0.0746772571 0.9922867728 0.0037272408
C -1.4626009177 0.9730102612 0.0036245991
C 2.1346358626 -0.2144738932 0.0002085068
O 2.8155534280 -1.2328495034 -0.0046094508
O 2.6765653492 1.0211893989 0.0031741916
C 4.1241171762 1.0703070243 0.0019159350
H -4.0810978897 1.4034599941 0.9012610151
H -5.3131994115 0.4758053850 -0.0008294663
H -4.0791161570 1.4082928334 -0.8951729388
H -1.9395229906 -2.3977009819 -0.0071786514
H 0.5378580499 -2.3488190943 -0.0071172399
H 0.4346313822 1.9485784150 0.0069744141
H -2.0074880657 1.9083379148 0.0067428210
H 4.5187911939 0.5890571002 -0.8961843463
H 4.5204816090 0.5807163973 0.8947368080
H 4.3756129171 2.1302495935 0.0066327843
22
CONF2
C -4.3461442501 -0.7171037966 -0.0050258215
O -3.4689368956 0.4235159137 0.0461450819
C -2.1298013156 0.1924642432 0.0171847537
C -1.5521708694 -1.0791777798 -0.0765281827
C -0.1699497120 -1.1935552726 -0.0960383934
C 0.6526393632 -0.0651364455 -0.0224885021
C 0.0579778721 1.2040065310 0.0695922477
C -1.3165812006 1.3326775472 0.0883250801
C 2.1124426486 -0.2550368715 -0.0438938523
O 2.6705783931 -1.3412489154 -0.1432729604
O 2.7928309067 0.9052978291 0.0616524886
C 4.2368958272 0.7894506543 0.0473633719
H -5.3563924949 -0.3099597353 0.0373049460
H -4.1764795039 -1.3754960796 0.8533180709
H -4.2098136020 -1.2710848525 -0.9396711725
H -2.1618669743 -1.9719396211 -0.1337271423
H 0.2809139503 -2.1773721569 -0.1684991939
H 0.6743941741 2.0932542269 0.1259710343
H -1.7839540882 2.3092169462 0.1589662300
H 4.5722100618 0.3547720793 -0.8977077143
H 4.5761446844 0.1744544597 0.8847691850
H 4.6077918992 1.8088372716 0.1498805165
22
CONF1
C -4.3793507521 0.4944325469 0.0005913389
O -3.4425221003 -0.5992541568 -0.0000199383
C -2.1172878456 -0.2968475776 -0.0000091744
C -1.2456220201 -1.3953291830 -0.0007351648
C 0.1202994018 -1.1946600585 -0.0007832881
C 0.6487254935 0.1066855396 -0.0003043049
C -0.2315374087 1.1931042932 0.0001761466
C -1.6060057486 1.0061768966 0.0005955635
C 2.0965517879 0.3728565183 -0.0003133966
O 2.5977714355 1.4901974360 -0.0043832203
O 2.8360809059 -0.7561546505 0.0028945044
C 4.2723957987 -0.5665313316 0.0016491872
H -5.3663702913 0.0319890403 0.0001516247
H -4.2584548556 1.1095339444 -0.8970795236
H -4.2586737497 1.1083124295 0.8991308599
H -1.6610848278 -2.3973675895 -0.0012755310
H 0.7814417438 -2.0528852674 -0.0013775749
H 0.1666721562 2.2018918672 0.0007688994
H -2.2605912187 1.8683951813 0.0013800985
H 4.6941200244 -1.5709305398 0.0107303081
H 4.5824156884 -0.0147601391 0.8923293203
H 4.5827291568 -0.0308116827 -0.8987078658
22
CONF4
C -4.2766277218 0.8081094413 0.0509379773
O -3.4823568843 -0.3907335584 -0.0138263230
C -2.1304661281 -0.2540158929 -0.0192437204
C -1.4002255128 -1.4496758680 -0.0856480359
C -0.0210884692 -1.4129720556 -0.0948411811
C 0.6635317978 -0.1887586412 -0.0356909882
C -0.0759570303 0.9972332152 0.0293524801
C -1.4638536367 0.9752852089 0.0361036099
C 2.1350266056 -0.2043649245 -0.0451588978
O 2.8172138143 -1.2171829372 -0.1398957285
O 2.6755478049 1.0272878374 0.0685972906
C 4.1227060805 1.0790924600 0.0674732652
H -4.0712635792 1.3614974555 0.9732365000
H -5.3132709837 0.4711314590 0.0476167814
H -4.0919456744 1.4439345501 -0.8211814051
H -1.9352220176 -2.3924762432 -0.1284891630
H 0.5420770994 -2.3382893065 -0.1458623198
H 0.4318221179 1.9534281440 0.0726754139
H -2.0101324469 1.9086201428 0.0843467947
H 4.3733903359 2.1327219145 0.1842085067
H 4.5151418238 0.6975073639 -0.8782340089
H 4.5236523928 0.4978514388 0.9010466322
