 xtb: 6.7.1 (edcfbbe)
          04112511573D

 14 13  0     0  0            999 V2000
    0.9754    1.4974    0.0834 C   0  0  0  0  0  0  0  0  0  0  0  0
    0.9627    0.0674   -0.4400 C   0  0  0  0  0  0  0  0  0  0  0  0
    1.3893   -0.9437    0.6159 C   0  0  0  0  0  0  0  0  0  0  0  0
   -0.3417   -0.2748   -0.9947 O   0  0  0  0  0  0  0  0  0  0  0  0
   -1.4141   -0.2949   -0.2526 C   0  0  0  0  0  0  0  0  0  0  0  0
   -1.5212   -0.0568    0.9237 O   0  0  0  0  0  0  0  0  0  0  0  0
    1.9893    1.7669    0.3609 H   0  0  0  0  0  0  0  0  0  0  0  0
    0.6245    2.1821   -0.6850 H   0  0  0  0  0  0  0  0  0  0  0  0
    0.3337    1.5876    0.9565 H   0  0  0  0  0  0  0  0  0  0  0  0
    1.6080   -0.0151   -1.3203 H   0  0  0  0  0  0  0  0  0  0  0  0
    0.7498   -0.8701    1.4922 H   0  0  0  0  0  0  0  0  0  0  0  0
    2.4145   -0.7424    0.9092 H   0  0  0  0  0  0  0  0  0  0  0  0
    1.3267   -1.9532    0.2169 H   0  0  0  0  0  0  0  0  0  0  0  0
   -2.2742   -0.5784   -0.8832 H   0  0  0  0  0  0  0  0  0  0  0  0
  1  2  1  0  0  0  0
  2  3  1  0  0  0  0
  2  4  1  0  0  0  0
  4  5  4  0  0  0  0
  5  6  2  0  0  0  0
  1  7  1  0  0  0  0
  1  8  1  0  0  0  0
  1  9  1  0  0  0  0
  2 10  1  0  0  0  0
  3 11  1  0  0  0  0
  3 12  1  0  0  0  0
  3 13  1  0  0  0  0
  5 14  1  0  0  0  0
M  END
