 xtb: 6.7.1 (edcfbbe)
          04112511493D

 21 20  0     0  0            999 V2000
    1.8952    1.1578   -0.4088 C   0  0  0  0  0  0  0  0  0  0  0  0
    1.4208   -0.2870   -0.2788 C   0  0  0  0  0  0  0  0  0  0  0  0
    2.0853   -0.9179   -0.8936 H   0  0  0  0  0  0  0  0  0  0  0  0
   -0.0178   -0.4788   -0.7895 C   0  0  0  0  0  0  0  0  0  0  0  0
   -1.0901    0.1955    0.0874 C   0  0  0  0  0  0  0  0  0  0  0  0
   -2.0680    0.9967   -0.7698 C   0  0  0  0  0  0  0  0  0  0  0  0
   -1.8490   -0.8343    0.9234 C   0  0  0  0  0  0  0  0  0  0  0  0
    1.5621   -0.6624    1.0826 O   0  0  0  0  0  0  0  0  0  0  0  0
    1.8769    1.4619   -1.4505 H   0  0  0  0  0  0  0  0  0  0  0  0
    1.2604    1.8211    0.1708 H   0  0  0  0  0  0  0  0  0  0  0  0
    2.9098    1.2396   -0.0284 H   0  0  0  0  0  0  0  0  0  0  0  0
   -0.0559   -0.0770   -1.8024 H   0  0  0  0  0  0  0  0  0  0  0  0
   -0.2269   -1.5488   -0.8567 H   0  0  0  0  0  0  0  0  0  0  0  0
   -0.5939    0.8813    0.7809 H   0  0  0  0  0  0  0  0  0  0  0  0
   -2.8142    1.4806   -0.1434 H   0  0  0  0  0  0  0  0  0  0  0  0
   -2.5817    0.3406   -1.4696 H   0  0  0  0  0  0  0  0  0  0  0  0
   -1.5450    1.7650   -1.3343 H   0  0  0  0  0  0  0  0  0  0  0  0
   -2.6025   -0.3423    1.5345 H   0  0  0  0  0  0  0  0  0  0  0  0
   -2.3486   -1.5562    0.2800 H   0  0  0  0  0  0  0  0  0  0  0  0
   -1.1702   -1.3639    1.5864 H   0  0  0  0  0  0  0  0  0  0  0  0
    1.3737   -1.6055    1.1694 H   0  0  0  0  0  0  0  0  0  0  0  0
  1  2  1  0  0  0  0
  2  3  1  0  0  0  0
  2  4  1  0  0  0  0
  4  5  1  0  0  0  0
  5  6  1  0  0  0  0
  5  7  1  0  0  0  0
  2  8  1  0  0  0  0
  1  9  1  0  0  0  0
  1 10  1  0  0  0  0
  1 11  1  0  0  0  0
  4 12  1  0  0  0  0
  4 13  1  0  0  0  0
  5 14  1  0  0  0  0
  6 15  1  0  0  0  0
  6 16  1  0  0  0  0
  6 17  1  0  0  0  0
  7 18  1  0  0  0  0
  7 19  1  0  0  0  0
  7 20  1  0  0  0  0
  8 21  1  0  0  0  0
M  END
