  13
 
 C         -2.7473970094        0.0020096819       -0.0246355688
 C         -1.3174176264        0.0019642666        0.4983446494
 C         -0.3138078956       -0.0134095590       -0.6592259659
 N          1.0455450760       -0.0027694563       -0.0966036092
 O          1.5567229271       -1.0714551006        0.1333738208
 O          1.5403782936        1.0743165379        0.1301323298
 H         -3.4474494959        0.0107456388        0.8060947230
 H         -2.9317418340        0.8803936330       -0.6383248297
 H         -2.9370994557       -0.8849032258       -0.6242959255
 H         -1.1530042522       -0.8774146202        1.1244380119
 H         -1.1461519906        0.8930336927        1.1058286503
 H         -0.4328629713       -0.9215954934       -1.2521791428
 H         -0.4364405672        0.8776787239       -1.2769835184
          13
        -20.95475646
 C         -1.9920330136       -0.6059321534       -0.6206544778
 C         -1.4966247574        0.5377023199        0.2559245728
 C         -0.2186967541        0.1620263975        1.0047744920
 N          0.8990012547        0.0177676946        0.0512752514
 O          1.1588073836        0.9720210667       -0.6397708005
 O          1.4787931608       -1.0401450669        0.0298404596
 H         -2.9105268383       -0.3201632421       -1.1259130305
 H         -1.2551073928       -0.8625948620       -1.3784032792
 H         -2.1914475916       -1.4916404182       -0.0213941815
 H         -2.2613034672        0.8024801365        0.9874203623
 H         -1.2931584188        1.4173036108       -0.3579986663
 H          0.0538346568        0.9570051976        1.7031181886
 H         -0.3248803147       -0.7856667098        1.5353145687
