 13

C      1.042000     0.028000    -0.333000
C      1.438000     1.452000    -0.697000
C      2.893000     1.560000    -1.125000
N      3.202000     2.951000    -1.459000
O      3.620000     3.692000    -0.545000
O      3.015000     3.330000    -2.633000
H     -0.008000    -0.021000    -0.029000
H      1.177000    -0.632000    -1.196000
H      1.656000    -0.359000     0.486000
H      1.273000     2.097000     0.174000
H      0.783000     1.813000    -1.499000
H      3.556000     1.254000    -0.311000
H      3.105000     0.936000    -1.998000
