  13
 
 C          1.0420000000        0.0280000000       -0.3330000000
 C          1.4380000000        1.4520000000       -0.6970000000
 C          2.8930000000        1.5600000000       -1.1250000000
 N          3.2020000000        2.9510000000       -1.4590000000
 O          3.6200000000        3.6920000000       -0.5450000000
 O          3.0150000000        3.3300000000       -2.6330000000
 H         -0.0080000000       -0.0210000000       -0.0290000000
 H          1.1770000000       -0.6320000000       -1.1960000000
 H          1.6560000000       -0.3590000000        0.4860000000
 H          1.2730000000        2.0970000000        0.1740000000
 H          0.7830000000        1.8130000000       -1.4990000000
 H          3.5560000000        1.2540000000       -0.3110000000
 H          3.1050000000        0.9360000000       -1.9980000000
