 xtb: 6.7.1 (edcfbbe)
          04112512233D

 13 12  0     0  0            999 V2000
   -2.4990    0.1017    0.1618 C   0  0  0  0  0  0  0  0  0  0  0  0
   -1.1585   -0.3945   -0.3665 C   0  0  0  0  0  0  0  0  0  0  0  0
    0.0032    0.4012    0.2348 C   0  0  0  0  0  0  0  0  0  0  0  0
    1.3196    0.0062   -0.3379 C   0  0  0  0  0  0  0  0  0  0  0  0
    2.3491   -0.1187    0.2819 O   0  0  0  0  0  0  0  0  0  0  0  0
   -2.5407    0.0096    1.2442 H   0  0  0  0  0  0  0  0  0  0  0  0
   -2.6512    1.1456   -0.1008 H   0  0  0  0  0  0  0  0  0  0  0  0
   -3.3108   -0.4823   -0.2633 H   0  0  0  0  0  0  0  0  0  0  0  0
   -1.1362   -0.3007   -1.4536 H   0  0  0  0  0  0  0  0  0  0  0  0
   -1.0371   -1.4504   -0.1181 H   0  0  0  0  0  0  0  0  0  0  0  0
   -0.1319    1.4599   -0.0083 H   0  0  0  0  0  0  0  0  0  0  0  0
    0.0310    0.3055    1.3213 H   0  0  0  0  0  0  0  0  0  0  0  0
    1.3082   -0.1691   -1.4297 H   0  0  0  0  0  0  0  0  0  0  0  0
  1  2  1  0  0  0  0
  2  3  1  0  0  0  0
  3  4  1  0  0  0  0
  4  5  2  0  0  0  0
  1  6  1  0  0  0  0
  1  7  1  0  0  0  0
  1  8  1  0  0  0  0
  2  9  1  0  0  0  0
  2 10  1  0  0  0  0
  3 11  1  0  0  0  0
  3 12  1  0  0  0  0
  4 13  1  0  0  0  0
M  END
