13
 xtb: 6.7.1 (edcfbbe)
C           -1.86934637300986       -0.33573033654693        0.44373536764987
O           -1.01753435286711       -0.13091128856727       -0.68846255055090
C           -0.03298966993554        0.88880982285819       -0.47328820498989
C            1.04678316058554        0.46650470066990        0.50333853973647
O            1.71175792766654       -0.73264187708963        0.07312391869807
H           -2.32939482670957        0.61003867534850        0.76241470009958
H           -1.33060602021888       -0.77565856507738        1.29247455227282
H           -2.65254999604841       -1.02889121506385        0.12801968865902
H            0.41043663693491        1.08045428346755       -1.45600659300031
H           -0.51178911335680        1.81294670204954       -0.11300217271234
H            0.63688675891256        0.33452917311658        1.51410820122220
H            1.80584580958795        1.25374475851278        0.54912427261934
H            1.02268747611485       -1.39897313175333       -0.05468266191238
