  27
 
 C          4.9067834890       -0.5014987425       -0.0022701245
 C          3.6937528432        0.4204440051        0.0002134492
 C          2.3853233434       -0.3649615616       -0.0005191228
 C          1.1735656729        0.5591956676        0.0001607256
 O         -0.0000217278       -0.2171030400        0.0000520717
 C         -1.1735929350        0.5591791549       -0.0000341791
 C         -2.3853300571       -0.3650058952        0.0004719683
 C         -3.6937770168        0.4203557455       -0.0002331175
 C         -4.9067926176       -0.5016099268        0.0021933847
 H          5.8269624788        0.0784317461       -0.0004208116
 H          4.9014628655       -1.1410039276        0.8775038346
 H          4.9017825628       -1.1356528105       -0.8859085073
 H          3.7279403465        1.0632671704        0.8829549407
 H          3.7269318395        1.0666079686       -0.8801324904
 H          2.3329413141       -1.0060859361       -0.8818442795
 H          2.3328486996       -1.0074664420        0.8797907061
 H          1.1935854307        1.2107577647        0.8900313279
 H          1.1932123244        1.2115794449       -0.8891188786
 H         -1.1935772655        1.2108413005       -0.8898297514
 H         -1.1933127482        1.2114637343        0.8893059087
 H         -2.3329742246       -1.0062305569        0.8817283693
 H         -2.3327981289       -1.0073936815       -0.8799011512
 H         -3.7279886086        1.0632153323       -0.8829443440
 H         -3.7270003395        1.0664818522        0.8801275253
 H         -5.8269737029        0.0783088683        0.0003028943
 H         -4.9014288396       -1.1411269006       -0.8775620718
 H         -4.9018217695       -1.1357714985        0.8858319563
          27
        -30.37850005
 C          3.7054365308        1.2689520080       -0.3051274352
 C          2.2739986991        0.8427141315       -0.0069086221
 C          2.1965902995       -0.6165844143        0.4351430066
 C          0.7577594629       -1.0514749513        0.6931756207
 O          0.0532289380       -1.0199951169       -0.5287812960
 C         -1.2677873541       -1.4996183654       -0.4660908330
 C         -2.2504431445       -0.5621850432        0.2447110423
 C         -2.2690131643        0.8238034217       -0.3951071893
 C         -3.2081425570        1.7746285696        0.3355852145
 H          3.7369939742        2.3102555663       -0.6171848999
 H          4.3304673218        1.1561588795        0.5785955550
 H          4.1263862955        0.6593102601       -1.1014420169
 H          1.8605627953        1.4795898677        0.7790764618
 H          1.6583411033        0.9657956802       -0.8987414228
 H          2.6155368643       -1.2533711005       -0.3454244622
 H          2.7766202188       -0.7625286548        1.3488164926
 H          0.7366157912       -2.0733098616        1.1068425229
 H          0.2960310632       -0.3775724529        1.4295447732
 H         -1.2867107951       -2.4887983373        0.0194124223
 H         -1.5688516443       -1.6176101148       -1.5109986458
 H         -1.9806852925       -0.4744086027        1.2994559793
 H         -3.2442213509       -1.0118283918        0.1942062166
 H         -2.5795986935        0.7313280855       -1.4380721316
 H         -1.2552199391        1.2281859488       -0.3882789200
 H         -3.2062844904        2.7530509869       -0.1389721681
 H         -4.2258436135        1.3895252251        0.3245566402
 H         -2.9010025168        1.8963004411        1.3724230847
