  27
 
 C          0.7030000000       -2.2330000000       -0.7710000000
 C         -0.4190000000       -2.6450000000        0.1680000000
 C         -1.7780000000       -2.5830000000       -0.5230000000
 C         -2.9050000000       -2.9950000000        0.4140000000
 O         -4.1380000000       -2.9160000000       -0.2880000000
 C         -5.2330000000       -3.2900000000        0.5370000000
 C         -6.5170000000       -3.1830000000       -0.2730000000
 C         -7.7390000000       -3.5720000000        0.5550000000
 C         -9.0190000000       -3.4640000000       -0.2570000000
 H          1.6740000000       -2.2800000000       -0.2670000000
 H          0.7390000000       -2.8860000000       -1.6490000000
 H          0.5500000000       -1.2060000000       -1.1170000000
 H         -0.2310000000       -3.6630000000        0.5280000000
 H         -0.4160000000       -1.9850000000        1.0440000000
 H         -1.9690000000       -1.5690000000       -0.8960000000
 H         -1.7850000000       -3.2330000000       -1.4070000000
 H         -2.7670000000       -4.0240000000        0.7610000000
 H         -2.9550000000       -2.3290000000        1.2820000000
 H         -5.2600000000       -2.6210000000        1.4030000000
 H         -5.0730000000       -4.3160000000        0.8830000000
 H         -6.4410000000       -3.8230000000       -1.1610000000
 H         -6.6250000000       -2.1590000000       -0.6500000000
 H         -7.8150000000       -2.9220000000        1.4340000000
 H         -7.6300000000       -4.6000000000        0.9200000000
 H         -9.8900000000       -3.7450000000        0.3440000000
 H         -9.1680000000       -2.4430000000       -0.6220000000
 H         -8.9760000000       -4.1310000000       -1.1240000000
