 xtb: 6.7.1 (edcfbbe)
          04112511143D

 17 16  0     0  0            999 V2000
    1.8495    0.6770   -0.8343 C   0  0  0  0  0  0  0  0  0  0  0  0
    1.4046    0.0296    0.4754 C   0  0  0  0  0  0  0  0  0  0  0  0
    1.4798   -1.4931    0.3870 C   0  0  0  0  0  0  0  0  0  0  0  0
   -0.0013    0.4973    0.8810 C   0  0  0  0  0  0  0  0  0  0  0  0
   -1.1178    0.1478   -0.0742 C   0  0  0  0  0  0  0  0  0  0  0  0
   -1.0066   -0.4546   -1.1154 O   0  0  0  0  0  0  0  0  0  0  0  0
   -2.3298    0.5645    0.3077 O   0  0  0  0  0  0  0  0  0  0  0  0
    1.8275    1.7617   -0.7559 H   0  0  0  0  0  0  0  0  0  0  0  0
    1.1935    0.3729   -1.6458 H   0  0  0  0  0  0  0  0  0  0  0  0
    2.8631    0.3708   -1.0791 H   0  0  0  0  0  0  0  0  0  0  0  0
    2.0865    0.3596    1.2681 H   0  0  0  0  0  0  0  0  0  0  0  0
    2.4924   -1.8056    0.1460 H   0  0  0  0  0  0  0  0  0  0  0  0
    1.1949   -1.9493    1.3325 H   0  0  0  0  0  0  0  0  0  0  0  0
    0.8137   -1.8579   -0.3906 H   0  0  0  0  0  0  0  0  0  0  0  0
    0.0042    1.5851    0.9902 H   0  0  0  0  0  0  0  0  0  0  0  0
   -0.2545    0.0611    1.8509 H   0  0  0  0  0  0  0  0  0  0  0  0
   -2.3365    1.0418    1.1571 H   0  0  0  0  0  0  0  0  0  0  0  0
  1  2  1  0  0  0  0
  2  3  1  0  0  0  0
  2  4  1  0  0  0  0
  4  5  1  0  0  0  0
  5  6  2  0  0  0  0
  5  7  1  0  0  0  0
  1  8  1  0  0  0  0
  1  9  1  0  0  0  0
  1 10  1  0  0  0  0
  2 11  1  0  0  0  0
  3 12  1  0  0  0  0
  3 13  1  0  0  0  0
  3 14  1  0  0  0  0
  4 15  1  0  0  0  0
  4 16  1  0  0  0  0
  7 17  1  0  0  0  0
M  END
