24
CONF1
C 2.0214501580 1.1231127709 -1.0665821278
C 2.1195562978 -0.2009405143 -0.3116111865
C 3.5478696395 -0.4429842629 0.1740045397
C 1.1463078178 -0.2429783664 0.8858855240
C -0.3001143080 -0.1451970820 0.4843753517
C -1.0129731670 1.0504708691 0.6143805718
C -2.3422496044 1.1405053411 0.2051123257
C -2.9822200750 0.0314539634 -0.3431942658
C -2.2831457702 -1.1674627413 -0.4772191820
C -0.9557923201 -1.2525849236 -0.0665692707
H 2.2653789597 1.9617692941 -0.4021837412
H 1.0150109008 1.2910128791 -1.4639390293
H 2.7232010013 1.1445157110 -1.9073859378
H 1.8397807038 -1.0146419849 -0.9956489957
H 3.8561876667 0.3482079070 0.8684123631
H 3.6341561047 -1.4022325319 0.6958011875
H 4.2530993199 -0.4471291030 -0.6638835088
H 1.3980933614 0.5791266411 1.5675692787
H 1.3087535371 -1.1817134587 1.4294016443
H -0.5184104819 1.9194944671 1.0406488722
H -2.8789558956 2.0781054667 0.3160627955
H -4.0184228916 0.0986143989 -0.6600398795
H -2.7754598339 -2.0393959154 -0.8976902563
H -0.4181405925 -2.1919774851 -0.1692843250
24
CONF4
C 2.0590858926 0.9550792020 1.1754703050
C 2.1465535677 0.3428867333 -0.2209245275
C 3.5727701808 -0.1155483368 -0.5212744646
C 1.1698013489 -0.8412826317 -0.3826921602
C -0.2755750031 -0.4489197787 -0.2400627251
C -0.9407973790 0.1894483432 -1.2932829361
C -2.2674554946 0.5908102098 -1.1637086506
C -2.9553551880 0.3607358233 0.0269578960
C -2.3050055256 -0.2732048273 1.0830403613
C -0.9771511145 -0.6738427943 0.9481788319
H 2.3139583414 0.2084511836 1.9380740668
H 1.0534113140 1.3287169869 1.3931202736
H 2.7580492907 1.7919911168 1.2777568487
H 1.8634790338 1.1093439069 -0.9563364590
H 4.2793970091 0.7171670393 -0.4394047695
H 3.8843277078 -0.8911062893 0.1891332375
H 3.6528640249 -0.5315153692 -1.5313785789
H 1.4209256848 -1.6047784934 0.3644064437
H 1.3277093957 -1.2860205584 -1.3727615825
H -0.4112776208 0.3678430834 -2.2259316678
H -2.7675310432 1.0790420460 -1.9949959662
H -3.9911845396 0.6694136924 0.1285458655
H -2.8327899228 -0.4590558257 2.0137703975
H -0.4743642746 -1.1677915266 1.7755666926
24
CONF2
C 2.2492870696 -0.6615445891 -1.3764117078
C 2.3182202843 -0.1183854336 0.0500070095
C 2.3236938100 1.4093344498 0.0452659725
C 1.1986840525 -0.6970246291 0.9516159384
C -0.1989571132 -0.3467541547 0.5160951575
C -0.8281141074 0.8139147980 0.9812087464
C -2.1089290717 1.1570402129 0.5543706957
C -2.7889022033 0.3402861691 -0.3469334721
C -2.1795431187 -0.8239217171 -0.8107720040
C -0.8986285609 -1.1625523285 -0.3808742855
H 2.2544218338 -1.7570084004 -1.3898434743
H 3.1068665542 -0.3118088797 -1.9613975015
H 1.3400766267 -0.3213151003 -1.8849992940
H 3.2623670407 -0.4587525595 0.4963557828
H 2.3813073669 1.8140701867 1.0617105292
H 3.1832352918 1.7873825673 -0.5188413628
H 1.4170661253 1.8062104387 -0.4255962487
H 1.3602897973 -0.3314751007 1.9724094271
H 1.3066425293 -1.7877402040 0.9712977368
H -0.3076953717 1.4523735728 1.6901205536
H -2.5789773347 2.0611256482 0.9301073817
H -3.7883830961 0.6043068562 -0.6785788172
H -2.7047437565 -1.4730792117 -1.5052048189
H -0.4331344098 -2.0760127726 -0.7413540175
