 13

C      1.023000     0.744000    -0.061000
C      1.010000    -0.759000     0.221000
C     -0.408000    -1.134000    -0.044000
C     -1.195000    -0.059000    -0.148000
C     -0.430000     1.208000     0.031000
H      1.407000     0.927000    -1.073000
H      1.674000     1.287000     0.633000
H      1.702000    -1.290000    -0.439000
H      1.273000    -0.976000     1.261000
H     -0.759000    -2.154000    -0.110000
H     -2.263000    -0.100000    -0.311000
H     -0.662000     1.937000    -0.751000
H     -0.651000     1.651000     1.008000
