 xtb: 6.7.1 (edcfbbe)
          04112512293D

 23 22  0     0  0            999 V2000
   -1.4802    1.0041    0.6532 C   0  0  0  0  0  0  0  0  0  0  0  0
   -1.1508   -0.3535    0.0369 C   0  0  0  0  0  0  0  0  0  0  0  0
   -2.3408   -0.8280   -0.8008 C   0  0  0  0  0  0  0  0  0  0  0  0
    0.0975   -0.3352   -0.8566 C   0  0  0  0  0  0  0  0  0  0  0  0
    1.4726   -0.0900   -0.2066 C   0  0  0  0  0  0  0  0  0  0  0  0
    1.7865    1.3889    0.0188 C   0  0  0  0  0  0  0  0  0  0  0  0
    1.6610   -0.8819    1.0855 C   0  0  0  0  0  0  0  0  0  0  0  0
   -1.4830    1.7789   -0.1100 H   0  0  0  0  0  0  0  0  0  0  0  0
   -2.4658    0.9739    1.1137 H   0  0  0  0  0  0  0  0  0  0  0  0
   -0.7641    1.2756    1.4228 H   0  0  0  0  0  0  0  0  0  0  0  0
   -0.9995   -1.0774    0.8434 H   0  0  0  0  0  0  0  0  0  0  0  0
   -3.2372   -0.8928   -0.1884 H   0  0  0  0  0  0  0  0  0  0  0  0
   -2.5316   -0.1318   -1.6149 H   0  0  0  0  0  0  0  0  0  0  0  0
   -2.1477   -1.8097   -1.2275 H   0  0  0  0  0  0  0  0  0  0  0  0
   -0.0490    0.4111   -1.6417 H   0  0  0  0  0  0  0  0  0  0  0  0
    0.1456   -1.3112   -1.3478 H   0  0  0  0  0  0  0  0  0  0  0  0
    2.2116   -0.4594   -0.9298 H   0  0  0  0  0  0  0  0  0  0  0  0
    2.8281    1.5037    0.3122 H   0  0  0  0  0  0  0  0  0  0  0  0
    1.6261    1.9571   -0.8946 H   0  0  0  0  0  0  0  0  0  0  0  0
    1.1688    1.8157    0.8020 H   0  0  0  0  0  0  0  0  0  0  0  0
    2.6939   -0.8099    1.4192 H   0  0  0  0  0  0  0  0  0  0  0  0
    1.0236   -0.4945    1.8761 H   0  0  0  0  0  0  0  0  0  0  0  0
    1.4244   -1.9319    0.9291 H   0  0  0  0  0  0  0  0  0  0  0  0
  1  2  1  0  0  0  0
  2  3  1  0  0  0  0
  2  4  1  0  0  0  0
  4  5  1  0  0  0  0
  5  6  1  0  0  0  0
  5  7  1  0  0  0  0
  1  8  1  0  0  0  0
  1  9  1  0  0  0  0
  1 10  1  0  0  0  0
  2 11  1  0  0  0  0
  3 12  1  0  0  0  0
  3 13  1  0  0  0  0
  3 14  1  0  0  0  0
  4 15  1  0  0  0  0
  4 16  1  0  0  0  0
  5 17  1  0  0  0  0
  6 18  1  0  0  0  0
  6 19  1  0  0  0  0
  6 20  1  0  0  0  0
  7 21  1  0  0  0  0
  7 22  1  0  0  0  0
  7 23  1  0  0  0  0
M  END
