  15
 
 C         -1.2942485978       -0.0340971867       -0.0142901449
 C         -0.4009871119        1.2142778286       -0.1367736818
 C          1.0039101294        0.7441053004        0.2428731121
 C          1.0332388507       -0.6975481130       -0.2529201706
 C         -0.3391612281       -1.2274097755        0.1596761892
 H         -1.9068198729       -0.1539570090       -0.9075554203
 H         -1.9690702945        0.0463450458        0.8373653125
 H         -0.3998332149        1.5737819143       -1.1665890866
 H         -0.7450462390        2.0280104972        0.5002453943
 H          1.7830647420        1.3612140033       -0.2027437528
 H          1.1270008223        0.7624020955        1.3270798124
 H          1.1313087787       -0.7126656782       -1.3397183465
 H          1.8501273039       -1.2765040573        0.1760616466
 H         -0.6448316010       -2.0879499050       -0.4338933779
 H         -0.3103591199       -1.5340779712        1.2062458524
          15
        -15.81431426
 C         -0.4141145208       -1.2043612632       -0.1550301735
 C         -1.2933383371        0.0469416256        0.0112077660
 C         -0.3234888192        1.2365224260        0.1344102140
 C          1.0487246946        0.6792594299       -0.2461444644
 C          0.9886693411       -0.7592223732        0.2556124834
 H         -0.4038622997       -1.5183665738       -1.1998644372
 H         -0.7729252283       -2.0409861696        0.4428722374
 H         -1.9572459123        0.1670432056       -0.8443144673
 H         -1.9169674378       -0.0314606509        0.9012858915
 H         -0.6162043675        2.0708693268       -0.5011363059
 H         -0.2993235300        1.5942795128        1.1645729157
 H          1.1693850377        0.6852563148       -1.3308193055
 H          1.8659920155        1.2486139915        0.1943622806
 H          1.7685472043       -1.3893733125       -0.1701117129
 H          1.0857126852       -0.7756253018        1.3424876383
