 15

C     -0.246000     0.854000    -0.931000
C      1.126000     0.481000    -0.370000
C      0.845000    -0.330000     0.886000
C     -0.458000    -1.039000     0.562000
C     -1.268000     0.035000    -0.146000
H     -0.294000     0.622000    -2.001000
H     -0.444000     1.925000    -0.821000
H      1.666000    -0.135000    -1.100000
H      1.740000     1.362000    -0.161000
H      1.655000    -1.027000     1.119000
H      0.709000     0.339000     1.744000
H     -0.274000    -1.883000    -0.113000
H     -0.962000    -1.419000     1.456000
H     -2.043000    -0.390000    -0.792000
H     -1.764000     0.676000     0.592000
