 xtb: 6.7.1 (edcfbbe)
          04112511583D

 20 19  0     0  0            999 V2000
    2.2120    0.7731   -0.5500 C   0  0  0  0  0  0  0  0  0  0  0  0
    1.6905   -0.4349    0.2200 C   0  0  0  0  0  0  0  0  0  0  0  0
    0.3046   -0.1953    0.8216 C   0  0  0  0  0  0  0  0  0  0  0  0
   -0.8202   -0.1335   -0.2316 C   0  0  0  0  0  0  0  0  0  0  0  0
   -1.5488    1.2086   -0.1870 C   0  0  0  0  0  0  0  0  0  0  0  0
   -1.8154   -1.2767   -0.0365 C   0  0  0  0  0  0  0  0  0  0  0  0
    3.1993    0.5676   -0.9572 H   0  0  0  0  0  0  0  0  0  0  0  0
    1.5492    1.0256   -1.3739 H   0  0  0  0  0  0  0  0  0  0  0  0
    2.2847    1.6370    0.1073 H   0  0  0  0  0  0  0  0  0  0  0  0
    1.6521   -1.3031   -0.4420 H   0  0  0  0  0  0  0  0  0  0  0  0
    2.3900   -0.6668    1.0267 H   0  0  0  0  0  0  0  0  0  0  0  0
    0.0905   -0.9980    1.5298 H   0  0  0  0  0  0  0  0  0  0  0  0
    0.3299    0.7365    1.3898 H   0  0  0  0  0  0  0  0  0  0  0  0
   -0.3771   -0.2451   -1.2267 H   0  0  0  0  0  0  0  0  0  0  0  0
   -0.8536    2.0279   -0.3547 H   0  0  0  0  0  0  0  0  0  0  0  0
   -2.0227    1.3499    0.7823 H   0  0  0  0  0  0  0  0  0  0  0  0
   -2.3196    1.2506   -0.9538 H   0  0  0  0  0  0  0  0  0  0  0  0
   -2.5830   -1.2508   -0.8071 H   0  0  0  0  0  0  0  0  0  0  0  0
   -1.3087   -2.2378   -0.0901 H   0  0  0  0  0  0  0  0  0  0  0  0
   -2.3015   -1.1951    0.9338 H   0  0  0  0  0  0  0  0  0  0  0  0
  1  2  1  0  0  0  0
  2  3  1  0  0  0  0
  3  4  1  0  0  0  0
  4  5  1  0  0  0  0
  4  6  1  0  0  0  0
  1  7  1  0  0  0  0
  1  8  1  0  0  0  0
  1  9  1  0  0  0  0
  2 10  1  0  0  0  0
  2 11  1  0  0  0  0
  3 12  1  0  0  0  0
  3 13  1  0  0  0  0
  4 14  1  0  0  0  0
  5 15  1  0  0  0  0
  5 16  1  0  0  0  0
  5 17  1  0  0  0  0
  6 18  1  0  0  0  0
  6 19  1  0  0  0  0
  6 20  1  0  0  0  0
M  END
