21
 xtb: 6.7.1 (edcfbbe)
C            1.75029222723628       -0.85366494098866        1.19931881959851
C            1.49429580099056       -0.20555156826592       -0.15884764876649
C            0.29641400329102        0.73721105069974       -0.22180584531648
H            0.44634879639554        1.54493156041922        0.51335438474585
C           -1.10125066136562        0.13228691969493        0.02216642734469
C           -1.32434235414655       -1.18063566014445       -0.72697185198960
C           -1.44470626507171       -0.00754763321882        1.50801876446686
O            0.35233326597582        1.30944518927616       -1.55517431734018
H            2.73405732417795       -1.33345998374568        1.20586025098372
H            1.01068077238333       -1.62272102778770        1.43496264397567
H            1.73632141628585       -0.11120249581543        2.00506317676839
H            2.37218268701936        0.38810339201914       -0.44085625293014
H            1.38130325423357       -0.97839594811051       -0.92887981807946
H           -1.80215962880413        0.87582958320720       -0.38741256843147
H           -1.06769527690726       -1.08883412568917       -1.78764668232783
H           -0.72198142866365       -1.98909694365026       -0.29799294799458
H           -2.37531550890107       -1.48159629808665       -0.66238555356129
H           -1.25259221844934        0.92508538480505        2.05011210278893
H           -0.87391208865140       -0.80441720166457        1.99138563198016
H           -2.50691575420144       -0.24859113649764        1.62369959493324
H           -0.39707465744445        1.91271654032135       -1.64047975265622
