 xtb: 6.7.1 (edcfbbe)
          04112511193D

 14 13  0     0  0            999 V2000
   -1.0091   -0.4323   -0.3535 C   0  0  0  0  0  0  0  0  0  0  0  0
    0.1327    0.3800    0.2643 C   0  0  0  0  0  0  0  0  0  0  0  0
    1.4815   -0.0833   -0.3111 C   0  0  0  0  0  0  0  0  0  0  0  0
    1.6880   -1.4339    0.0335 O   0  0  0  0  0  0  0  0  0  0  0  0
   -0.0266    1.7681    0.1037 O   0  0  0  0  0  0  0  0  0  0  0  0
   -2.2081   -0.1499    0.3336 O   0  0  0  0  0  0  0  0  0  0  0  0
   -0.7433   -1.4920   -0.2660 H   0  0  0  0  0  0  0  0  0  0  0  0
   -1.1049   -0.1704   -1.4175 H   0  0  0  0  0  0  0  0  0  0  0  0
    0.1296    0.2093    1.3457 H   0  0  0  0  0  0  0  0  0  0  0  0
    2.2640    0.5596    0.1090 H   0  0  0  0  0  0  0  0  0  0  0  0
    1.4689    0.0378   -1.4040 H   0  0  0  0  0  0  0  0  0  0  0  0
    2.5772   -1.7010   -0.2389 H   0  0  0  0  0  0  0  0  0  0  0  0
   -0.2125    1.9673   -0.8257 H   0  0  0  0  0  0  0  0  0  0  0  0
   -2.9116   -0.7208   -0.0041 H   0  0  0  0  0  0  0  0  0  0  0  0
  1  2  1  0  0  0  0
  2  3  1  0  0  0  0
  3  4  1  0  0  0  0
  2  5  1  0  0  0  0
  1  6  1  0  0  0  0
  1  7  1  0  0  0  0
  1  8  1  0  0  0  0
  2  9  1  0  0  0  0
  3 10  1  0  0  0  0
  3 11  1  0  0  0  0
  4 12  1  0  0  0  0
  5 13  1  0  0  0  0
  6 14  1  0  0  0  0
M  END
