16
 xtb: 6.7.1 (edcfbbe)
C           -2.14912205667053        0.69777255069986       -0.35172464439739
C           -1.62306607495529       -0.45609581868340        0.50015017992098
C           -0.26522578655101       -0.96589981950088        0.03196166306941
C            0.90918020570986       -0.07979516031262        0.35861817938352
O            0.79172532446536        0.95185508369400        1.01315552781769
C            2.25535043420544       -0.55281466110579       -0.11029289032927
H           -3.11939917152279        1.04768412449201        0.01484223248371
H           -2.27856423031166        0.38169725841414       -1.39278101353110
H           -1.46112094203380        1.54894146592238       -0.34333595387271
H           -2.33638369873692       -1.28679795219050        0.46373139007434
H           -1.55271260539417       -0.14843892573047        1.54976811455204
H           -0.02916844638650       -1.94730135031715        0.46971656299426
H           -0.25838139153003       -1.13586246677658       -1.05388441816395
H            2.60509284901715       -1.32057037225012        0.59185230463233
H            2.97485969279670        0.26792220654666       -0.11467561595947
H            2.19623301789892       -1.02176875760616       -1.09592142765406
