 xtb: 6.7.1 (edcfbbe)
          04112512233D

 13 12  0     0  0            999 V2000
   -1.8505   -0.7596   -0.1228 C   0  0  0  0  0  0  0  0  0  0  0  0
   -1.3272    0.6047    0.3116 C   0  0  0  0  0  0  0  0  0  0  0  0
    0.0734    0.8667   -0.2460 C   0  0  0  0  0  0  0  0  0  0  0  0
    1.0909   -0.0510    0.3391 C   0  0  0  0  0  0  0  0  0  0  0  0
    2.0024   -0.5697   -0.2605 O   0  0  0  0  0  0  0  0  0  0  0  0
   -1.1882   -1.5512    0.2227 H   0  0  0  0  0  0  0  0  0  0  0  0
   -2.8421   -0.9355    0.2856 H   0  0  0  0  0  0  0  0  0  0  0  0
   -1.9100   -0.8177   -1.2071 H   0  0  0  0  0  0  0  0  0  0  0  0
   -1.2979    0.6562    1.4014 H   0  0  0  0  0  0  0  0  0  0  0  0
   -2.0022    1.3830   -0.0452 H   0  0  0  0  0  0  0  0  0  0  0  0
    0.0901    0.7872   -1.3339 H   0  0  0  0  0  0  0  0  0  0  0  0
    0.3867    1.8787    0.0272 H   0  0  0  0  0  0  0  0  0  0  0  0
    0.9695   -0.2324    1.4236 H   0  0  0  0  0  0  0  0  0  0  0  0
  1  2  1  0  0  0  0
  2  3  1  0  0  0  0
  3  4  1  0  0  0  0
  4  5  2  0  0  0  0
  1  6  1  0  0  0  0
  1  7  1  0  0  0  0
  1  8  1  0  0  0  0
  2  9  1  0  0  0  0
  2 10  1  0  0  0  0
  3 11  1  0  0  0  0
  3 12  1  0  0  0  0
  4 13  1  0  0  0  0
M  END
