 xtb: 6.7.1 (edcfbbe)
          04072510353D

 16 15  0     0  0            999 V2000
    2.4604   -0.0150   -0.2892 C   0  0  0  0  0  0  0  0  0  0  0  0
    1.1722    0.7688   -0.0773 C   0  0  0  0  0  0  0  0  0  0  0  0
   -0.0109   -0.1112    0.2292 C   0  0  0  0  0  0  0  0  0  0  0  0
    0.0639   -1.3223    0.2862 O   0  0  0  0  0  0  0  0  0  0  0  0
   -1.3185    0.6179    0.4532 C   0  0  0  0  0  0  0  0  0  0  0  0
   -2.3726    0.1393   -0.5472 C   0  0  0  0  0  0  0  0  0  0  0  0
    3.2834    0.6573   -0.5129 H   0  0  0  0  0  0  0  0  0  0  0  0
    2.7035   -0.5869    0.6031 H   0  0  0  0  0  0  0  0  0  0  0  0
    2.3422   -0.7164   -1.1117 H   0  0  0  0  0  0  0  0  0  0  0  0
    1.2828    1.4756    0.7480 H   0  0  0  0  0  0  0  0  0  0  0  0
    0.9250    1.3492   -0.9693 H   0  0  0  0  0  0  0  0  0  0  0  0
   -1.1759    1.6940    0.3720 H   0  0  0  0  0  0  0  0  0  0  0  0
   -1.6591    0.3789    1.4629 H   0  0  0  0  0  0  0  0  0  0  0  0
   -3.3355    0.5895   -0.3243 H   0  0  0  0  0  0  0  0  0  0  0  0
   -2.4679   -0.9428   -0.4947 H   0  0  0  0  0  0  0  0  0  0  0  0
   -2.0857    0.4106   -1.5604 H   0  0  0  0  0  0  0  0  0  0  0  0
  1  2  1  0  0  0  0
  2  3  1  0  0  0  0
  3  4  2  0  0  0  0
  3  5  1  0  0  0  0
  5  6  1  0  0  0  0
  1  7  1  0  0  0  0
  1  8  1  0  0  0  0
  1  9  1  0  0  0  0
  2 10  1  0  0  0  0
  2 11  1  0  0  0  0
  5 12  1  0  0  0  0
  5 13  1  0  0  0  0
  6 14  1  0  0  0  0
  6 15  1  0  0  0  0
  6 16  1  0  0  0  0
M  END
