14
 xtb: 6.7.1 (edcfbbe)
C           -1.45545888466551        0.38594388443171       -0.23330483065100
C           -0.03197259164445        0.35003654772092        0.30552674629276
C            0.79831075604478       -0.74575398712982       -0.34260649671901
O            2.12387468426187       -0.80259664801856        0.20033281440743
O            0.58735756080096        1.63330714475603        0.10668533592946
O           -2.10091689639285       -0.85109441891154        0.10495203443602
H           -1.43090927869997        0.52811643241623       -1.32515646939167
H           -1.98191023003121        1.23792879079661        0.21691283619990
H           -0.05307461620786        0.19883634889970        1.39145629993696
H            0.83115638716918       -0.57693754870102       -1.43130219297230
H            0.34233912747566       -1.72213341040306       -0.15836880028429
H            2.51213109349572        0.07465375917317        0.07801127410171
H            0.63830534780983        1.78883186442091       -0.84773097652275
H           -3.01227580468301       -0.79464969104796       -0.20761144857341
