20
 xtb: 6.7.1 (edcfbbe)
C            2.72897683626469       -1.41650334789893        0.00000059080157
O            1.29368818738923       -1.37803848614330       -0.00013028970185
C            0.70701104238630       -0.14019902058158        0.00005305776213
C            1.39603499838520        1.06693924671590        0.00035711437509
C            0.69298635384646        2.27620711471384        0.00049944230606
C           -0.69293508151371        2.27622501718111        0.00036015482242
C           -1.39601388631083        1.06697481037207        0.00009293764708
C           -0.70702061530912       -0.14018112266260       -0.00006530241838
O           -1.29372926182394       -1.37800556668846       -0.00035835217626
C           -2.72902019847862       -1.41643357445726        0.00046212359182
H            3.13460080359126       -0.93517730769473       -0.89697437039363
H            2.99432235589556       -2.47419111374085       -0.00056112158472
H            3.13439040075070       -0.93617404312207        0.89761408361766
H            2.47915601466575        1.07814924916726        0.00053673354003
H            1.24463704015588        3.21054873889735        0.00073999303327
H           -1.24456120270730        3.21058126475130        0.00045816820446
H           -2.47913469843284        1.07820955190837        0.00000785015532
H           -2.99439203009400       -2.47411482961570        0.00023057055141
H           -3.13508756829619       -0.93527411491721       -0.89640234412577
H           -3.13396504134300       -0.93591719535601        0.89818583872890
