 xtb: 6.7.1 (edcfbbe)
          04112512323D

 22 22  0     0  0            999 V2000
    5.0160   -0.4188   -1.0555 C   0  0  0  0  0  0  0  0  0  0  0  0
    4.6052   -0.3057    0.4150 C   0  0  0  0  0  0  0  0  0  0  0  0
    3.2874    0.4290    0.5385 C   0  0  0  0  0  0  0  0  0  0  0  0
    3.2129    1.5940    0.8944 O   0  0  0  0  0  0  0  0  0  0  0  0
    2.2170   -0.3365    0.1894 N   0  0  0  0  0  0  0  0  0  0  0  0
    0.8703    0.0063    0.1337 C   0  0  0  0  0  0  0  0  0  0  0  0
    0.3914    1.2746    0.4595 C   0  0  0  0  0  0  0  0  0  0  0  0
   -0.9602    1.5476    0.3825 C   0  0  0  0  0  0  0  0  0  0  0  0
   -1.8544    0.5674   -0.0180 C   0  0  0  0  0  0  0  0  0  0  0  0
   -1.3826   -0.6984   -0.3441 C   0  0  0  0  0  0  0  0  0  0  0  0
   -0.0318   -0.9799   -0.2700 C   0  0  0  0  0  0  0  0  0  0  0  0
   -2.4858   -1.9370   -0.8471 Cl  0  0  0  0  0  0  0  0  0  0  0  0
   -3.5510    0.9214   -0.1105 Cl  0  0  0  0  0  0  0  0  0  0  0  0
    4.2910   -0.9928   -1.6259 H   0  0  0  0  0  0  0  0  0  0  0  0
    5.9825   -0.9088   -1.1302 H   0  0  0  0  0  0  0  0  0  0  0  0
    5.0961    0.5709   -1.4986 H   0  0  0  0  0  0  0  0  0  0  0  0
    5.3562    0.2658    0.9605 H   0  0  0  0  0  0  0  0  0  0  0  0
    4.5236   -1.2972    0.8601 H   0  0  0  0  0  0  0  0  0  0  0  0
    2.4185   -1.2912   -0.0812 H   0  0  0  0  0  0  0  0  0  0  0  0
    1.0810    2.0405    0.7720 H   0  0  0  0  0  0  0  0  0  0  0  0
   -1.3296    2.5277    0.6343 H   0  0  0  0  0  0  0  0  0  0  0  0
    0.3100   -1.9690   -0.5279 H   0  0  0  0  0  0  0  0  0  0  0  0
  1  2  1  0  0  0  0
  2  3  1  0  0  0  0
  3  4  2  0  0  0  0
  3  5  4  0  0  0  0
  5  6  1  0  0  0  0
  6  7  4  0  0  0  0
  7  8  4  0  0  0  0
  8  9  4  0  0  0  0
  9 10  4  0  0  0  0
  6 11  4  0  0  0  0
 10 11  4  0  0  0  0
 10 12  1  0  0  0  0
  9 13  1  0  0  0  0
  1 14  1  0  0  0  0
  1 15  1  0  0  0  0
  1 16  1  0  0  0  0
  2 17  1  0  0  0  0
  2 18  1  0  0  0  0
  5 19  1  0  0  0  0
  7 20  1  0  0  0  0
  8 21  1  0  0  0  0
 11 22  1  0  0  0  0
M  END
