 xtb: 6.7.1 (edcfbbe)
          04112511323D

 21 20  0     0  0            999 V2000
   -2.3192   -0.0568   -1.0202 C   0  0  0  0  0  0  0  0  0  0  0  0
   -1.7662    0.6436    0.2162 C   0  0  0  0  0  0  0  0  0  0  0  0
   -0.5839   -0.0598    0.8843 C   0  0  0  0  0  0  0  0  0  0  0  0
    0.7685   -0.1035    0.1428 C   0  0  0  0  0  0  0  0  0  0  0  0
    1.0742    1.2057   -0.5916 C   0  0  0  0  0  0  0  0  0  0  0  0
    0.8629   -1.2887   -0.8238 C   0  0  0  0  0  0  0  0  0  0  0  0
    1.7230   -0.2879    1.1951 O   0  0  0  0  0  0  0  0  0  0  0  0
   -2.4895   -1.1114   -0.8170 H   0  0  0  0  0  0  0  0  0  0  0  0
   -1.6410    0.0301   -1.8646 H   0  0  0  0  0  0  0  0  0  0  0  0
   -3.2667    0.3939   -1.3071 H   0  0  0  0  0  0  0  0  0  0  0  0
   -1.4970    1.6699   -0.0344 H   0  0  0  0  0  0  0  0  0  0  0  0
   -2.5617    0.6927    0.9637 H   0  0  0  0  0  0  0  0  0  0  0  0
   -0.3816    0.4478    1.8312 H   0  0  0  0  0  0  0  0  0  0  0  0
   -0.8661   -1.0864    1.1272 H   0  0  0  0  0  0  0  0  0  0  0  0
    2.0840    1.1755   -0.9966 H   0  0  0  0  0  0  0  0  0  0  0  0
    1.0049    2.0434    0.0982 H   0  0  0  0  0  0  0  0  0  0  0  0
    0.3814    1.3574   -1.4125 H   0  0  0  0  0  0  0  0  0  0  0  0
    1.8365   -1.2990   -1.3110 H   0  0  0  0  0  0  0  0  0  0  0  0
    0.0965   -1.2293   -1.5876 H   0  0  0  0  0  0  0  0  0  0  0  0
    0.7401   -2.2198   -0.2749 H   0  0  0  0  0  0  0  0  0  0  0  0
    2.6040   -0.3803    0.8076 H   0  0  0  0  0  0  0  0  0  0  0  0
  1  2  1  0  0  0  0
  2  3  1  0  0  0  0
  3  4  1  0  0  0  0
  4  5  1  0  0  0  0
  4  6  1  0  0  0  0
  4  7  1  0  0  0  0
  1  8  1  0  0  0  0
  1  9  1  0  0  0  0
  1 10  1  0  0  0  0
  2 11  1  0  0  0  0
  2 12  1  0  0  0  0
  3 13  1  0  0  0  0
  3 14  1  0  0  0  0
  5 15  1  0  0  0  0
  5 16  1  0  0  0  0
  5 17  1  0  0  0  0
  6 18  1  0  0  0  0
  6 19  1  0  0  0  0
  6 20  1  0  0  0  0
  7 21  1  0  0  0  0
M  END
