 xtb: 6.7.1 (edcfbbe)
          04112512243D

 23 22  0     0  0            999 V2000
    2.0220    1.2515    0.1015 C   0  0  0  0  0  0  0  0  0  0  0  0
    1.5329    0.1638   -0.8480 C   0  0  0  0  0  0  0  0  0  0  0  0
    0.2805   -0.6127   -0.4057 C   0  0  0  0  0  0  0  0  0  0  0  0
    0.0630   -1.3012   -1.2323 H   0  0  0  0  0  0  0  0  0  0  0  0
    0.5630   -1.4766    0.8223 C   0  0  0  0  0  0  0  0  0  0  0  0
   -0.9667    0.2897   -0.2504 C   0  0  0  0  0  0  0  0  0  0  0  0
   -2.2207   -0.4566   -0.7115 C   0  0  0  0  0  0  0  0  0  0  0  0
   -1.1987    0.8149    1.1666 C   0  0  0  0  0  0  0  0  0  0  0  0
    1.2934    2.0532    0.1850 H   0  0  0  0  0  0  0  0  0  0  0  0
    2.2200    0.8492    1.0912 H   0  0  0  0  0  0  0  0  0  0  0  0
    2.9477    1.6780   -0.2796 H   0  0  0  0  0  0  0  0  0  0  0  0
    2.3396   -0.5595   -0.9937 H   0  0  0  0  0  0  0  0  0  0  0  0
    1.3275    0.6195   -1.8204 H   0  0  0  0  0  0  0  0  0  0  0  0
   -0.3114   -2.0692    1.0799 H   0  0  0  0  0  0  0  0  0  0  0  0
    1.3829   -2.1596    0.6098 H   0  0  0  0  0  0  0  0  0  0  0  0
    0.8361   -0.8743    1.6829 H   0  0  0  0  0  0  0  0  0  0  0  0
   -0.8314    1.1517   -0.9140 H   0  0  0  0  0  0  0  0  0  0  0  0
   -2.3724   -1.3524   -0.1133 H   0  0  0  0  0  0  0  0  0  0  0  0
   -2.1354   -0.7506   -1.7553 H   0  0  0  0  0  0  0  0  0  0  0  0
   -3.0992    0.1759   -0.6058 H   0  0  0  0  0  0  0  0  0  0  0  0
   -2.0105    1.5399    1.1560 H   0  0  0  0  0  0  0  0  0  0  0  0
   -0.3155    1.3027    1.5657 H   0  0  0  0  0  0  0  0  0  0  0  0
   -1.4805    0.0059    1.8354 H   0  0  0  0  0  0  0  0  0  0  0  0
  1  2  1  0  0  0  0
  2  3  1  0  0  0  0
  3  4  1  0  0  0  0
  3  5  1  0  0  0  0
  3  6  1  0  0  0  0
  6  7  1  0  0  0  0
  6  8  1  0  0  0  0
  1  9  1  0  0  0  0
  1 10  1  0  0  0  0
  1 11  1  0  0  0  0
  2 12  1  0  0  0  0
  2 13  1  0  0  0  0
  5 14  1  0  0  0  0
  5 15  1  0  0  0  0
  5 16  1  0  0  0  0
  6 17  1  0  0  0  0
  7 18  1  0  0  0  0
  7 19  1  0  0  0  0
  7 20  1  0  0  0  0
  8 21  1  0  0  0  0
  8 22  1  0  0  0  0
  8 23  1  0  0  0  0
M  END
