 26

C     -1.268000     0.703000    -1.664000
C     -1.042000    -0.224000    -0.490000
O     -2.060000     0.007000     0.490000
C     -1.981000    -0.766000     1.614000
O     -1.131000    -1.617000     1.840000
C     -3.126000    -0.406000     2.536000
C     -3.124000    -1.221000     3.827000
C     -4.269000    -0.860000     4.749000
O     -5.123000    -0.015000     4.520000
O     -4.196000    -1.640000     5.869000
C     -5.225000    -1.422000     6.840000
C     -4.995000    -2.358000     8.003000
H     -0.506000     0.552000    -2.433000
H     -2.255000     0.533000    -2.107000
H     -1.241000     1.749000    -1.341000
H     -0.065000    -0.036000    -0.034000
H     -1.093000    -1.269000    -0.810000
H     -4.068000    -0.532000     1.992000
H     -3.008000     0.653000     2.796000
H     -2.195000    -1.006000     4.369000
H     -3.168000    -2.295000     3.615000
H     -5.176000    -0.381000     7.160000
H     -6.187000    -1.616000     6.366000
H     -5.766000    -2.217000     8.765000
H     -5.011000    -3.402000     7.673000
H     -4.014000    -2.183000     8.456000
