  26
 
 C         -1.2680000000        0.7030000000       -1.6640000000
 C         -1.0420000000       -0.2240000000       -0.4900000000
 O         -2.0600000000        0.0070000000        0.4900000000
 C         -1.9810000000       -0.7660000000        1.6140000000
 O         -1.1310000000       -1.6170000000        1.8400000000
 C         -3.1260000000       -0.4060000000        2.5360000000
 C         -3.1240000000       -1.2210000000        3.8270000000
 C         -4.2690000000       -0.8600000000        4.7490000000
 O         -5.1230000000       -0.0150000000        4.5200000000
 O         -4.1960000000       -1.6400000000        5.8690000000
 C         -5.2250000000       -1.4220000000        6.8400000000
 C         -4.9950000000       -2.3580000000        8.0030000000
 H         -0.5060000000        0.5520000000       -2.4330000000
 H         -2.2550000000        0.5330000000       -2.1070000000
 H         -1.2410000000        1.7490000000       -1.3410000000
 H         -0.0650000000       -0.0360000000       -0.0340000000
 H         -1.0930000000       -1.2690000000       -0.8100000000
 H         -4.0680000000       -0.5320000000        1.9920000000
 H         -3.0080000000        0.6530000000        2.7960000000
 H         -2.1950000000       -1.0060000000        4.3690000000
 H         -3.1680000000       -2.2950000000        3.6150000000
 H         -5.1760000000       -0.3810000000        7.1600000000
 H         -6.1870000000       -1.6160000000        6.3660000000
 H         -5.7660000000       -2.2170000000        8.7650000000
 H         -5.0110000000       -3.4020000000        7.6730000000
 H         -4.0140000000       -2.1830000000        8.4560000000
