 xtb: 6.7.1 (edcfbbe)
          04112512023D

 21 21  0     0  0            999 V2000
   -3.8127   -1.2258   -0.4702 C   0  0  0  0  0  0  0  0  0  0  0  0
   -3.0254   -0.0126   -0.0148 C   0  0  0  0  0  0  0  0  0  0  0  0
   -1.6270   -0.3239   -0.1071 O   0  0  0  0  0  0  0  0  0  0  0  0
   -0.7670    0.6454    0.1890 C   0  0  0  0  0  0  0  0  0  0  0  0
   -1.1263    1.7606    0.5287 O   0  0  0  0  0  0  0  0  0  0  0  0
    0.6456    0.2335    0.0627 C   0  0  0  0  0  0  0  0  0  0  0  0
    1.6395    1.1733    0.3323 C   0  0  0  0  0  0  0  0  0  0  0  0
    2.9713    0.8223    0.2233 C   0  0  0  0  0  0  0  0  0  0  0  0
    3.3181   -0.4662   -0.1539 C   0  0  0  0  0  0  0  0  0  0  0  0
    2.3326   -1.4043   -0.4223 C   0  0  0  0  0  0  0  0  0  0  0  0
    0.9979   -1.0610   -0.3161 C   0  0  0  0  0  0  0  0  0  0  0  0
   -3.5617   -1.4681   -1.4986 H   0  0  0  0  0  0  0  0  0  0  0  0
   -3.5782   -2.0789    0.1594 H   0  0  0  0  0  0  0  0  0  0  0  0
   -4.8738   -1.0104   -0.4015 H   0  0  0  0  0  0  0  0  0  0  0  0
   -3.2521    0.2535    1.0232 H   0  0  0  0  0  0  0  0  0  0  0  0
   -3.2272    0.8636   -0.6405 H   0  0  0  0  0  0  0  0  0  0  0  0
    1.3409    2.1691    0.6240 H   0  0  0  0  0  0  0  0  0  0  0  0
    3.7381    1.5518    0.4320 H   0  0  0  0  0  0  0  0  0  0  0  0
    4.3585   -0.7395   -0.2387 H   0  0  0  0  0  0  0  0  0  0  0  0
    2.6065   -2.4058   -0.7150 H   0  0  0  0  0  0  0  0  0  0  0  0
    0.2231   -1.7818   -0.5223 H   0  0  0  0  0  0  0  0  0  0  0  0
  1  2  1  0  0  0  0
  2  3  1  0  0  0  0
  3  4  1  0  0  0  0
  4  5  2  0  0  0  0
  4  6  1  0  0  0  0
  6  7  4  0  0  0  0
  7  8  4  0  0  0  0
  8  9  4  0  0  0  0
  9 10  4  0  0  0  0
  6 11  4  0  0  0  0
 10 11  4  0  0  0  0
  1 12  1  0  0  0  0
  1 13  1  0  0  0  0
  1 14  1  0  0  0  0
  2 15  1  0  0  0  0
  2 16  1  0  0  0  0
  7 17  1  0  0  0  0
  8 18  1  0  0  0  0
  9 19  1  0  0  0  0
 10 20  1  0  0  0  0
 11 21  1  0  0  0  0
M  END
