 xtb: 6.7.1 (edcfbbe)
          04112512053D

 26 25  0     0  0            999 V2000
   -2.4560    0.7585    0.5396 C   0  0  0  0  0  0  0  0  0  0  0  0
   -1.2357   -0.1660    0.5360 C   0  0  0  0  0  0  0  0  0  0  0  0
   -1.6708   -1.5408    0.0241 C   0  0  0  0  0  0  0  0  0  0  0  0
   -0.0887    0.4424   -0.3013 C   0  0  0  0  0  0  0  0  0  0  0  0
    0.3259    1.8012    0.2698 C   0  0  0  0  0  0  0  0  0  0  0  0
    1.1212   -0.5071   -0.4517 C   0  0  0  0  0  0  0  0  0  0  0  0
    2.1002   -0.0081   -1.5172 C   0  0  0  0  0  0  0  0  0  0  0  0
    1.8651   -0.7507    0.8599 C   0  0  0  0  0  0  0  0  0  0  0  0
   -3.2799    0.2858    1.0699 H   0  0  0  0  0  0  0  0  0  0  0  0
   -2.2418    1.7015    1.0327 H   0  0  0  0  0  0  0  0  0  0  0  0
   -2.7789    0.9626   -0.4793 H   0  0  0  0  0  0  0  0  0  0  0  0
   -0.8937   -0.2749    1.5708 H   0  0  0  0  0  0  0  0  0  0  0  0
   -1.8808   -1.5000   -1.0427 H   0  0  0  0  0  0  0  0  0  0  0  0
   -2.5765   -1.8564    0.5374 H   0  0  0  0  0  0  0  0  0  0  0  0
   -0.9116   -2.2969    0.2028 H   0  0  0  0  0  0  0  0  0  0  0  0
   -0.4810    0.6065   -1.3130 H   0  0  0  0  0  0  0  0  0  0  0  0
    0.4968    1.7325    1.3414 H   0  0  0  0  0  0  0  0  0  0  0  0
   -0.4460    2.5444    0.0925 H   0  0  0  0  0  0  0  0  0  0  0  0
    1.2354    2.1580   -0.2038 H   0  0  0  0  0  0  0  0  0  0  0  0
    0.7396   -1.4675   -0.8095 H   0  0  0  0  0  0  0  0  0  0  0  0
    1.5778    0.2190   -2.4438 H   0  0  0  0  0  0  0  0  0  0  0  0
    2.6269    0.8845   -1.1898 H   0  0  0  0  0  0  0  0  0  0  0  0
    2.8435   -0.7751   -1.7235 H   0  0  0  0  0  0  0  0  0  0  0  0
    2.3119    0.1686    1.2285 H   0  0  0  0  0  0  0  0  0  0  0  0
    2.6621   -1.4745    0.7028 H   0  0  0  0  0  0  0  0  0  0  0  0
    1.1976   -1.1436    1.6221 H   0  0  0  0  0  0  0  0  0  0  0  0
  1  2  1  0  0  0  0
  2  3  1  0  0  0  0
  2  4  1  0  0  0  0
  4  5  1  0  0  0  0
  4  6  1  0  0  0  0
  6  7  1  0  0  0  0
  6  8  1  0  0  0  0
  1  9  1  0  0  0  0
  1 10  1  0  0  0  0
  1 11  1  0  0  0  0
  2 12  1  0  0  0  0
  3 13  1  0  0  0  0
  3 14  1  0  0  0  0
  3 15  1  0  0  0  0
  4 16  1  0  0  0  0
  5 17  1  0  0  0  0
  5 18  1  0  0  0  0
  5 19  1  0  0  0  0
  6 20  1  0  0  0  0
  7 21  1  0  0  0  0
  7 22  1  0  0  0  0
  7 23  1  0  0  0  0
  8 24  1  0  0  0  0
  8 25  1  0  0  0  0
  8 26  1  0  0  0  0
M  END
