 xtb: 6.7.1 (edcfbbe)
          04112512193D

 17 16  0     0  0            999 V2000
   -2.2801    0.3725   -1.0517 C   0  0  0  0  0  0  0  0  0  0  0  0
   -1.8257    0.3880    0.4111 C   0  0  0  0  0  0  0  0  0  0  0  0
   -0.4465   -0.2112    0.5020 C   0  0  0  0  0  0  0  0  0  0  0  0
   -0.2140   -1.3873    0.6920 O   0  0  0  0  0  0  0  0  0  0  0  0
    0.4941    0.7069    0.3237 O   0  0  0  0  0  0  0  0  0  0  0  0
    1.8690    0.2884    0.3059 C   0  0  0  0  0  0  0  0  0  0  0  0
    2.2974   -0.1207   -1.0951 C   0  0  0  0  0  0  0  0  0  0  0  0
   -1.6102    0.9738   -1.6610 H   0  0  0  0  0  0  0  0  0  0  0  0
   -2.2833   -0.6456   -1.4339 H   0  0  0  0  0  0  0  0  0  0  0  0
   -3.2842    0.7784   -1.1278 H   0  0  0  0  0  0  0  0  0  0  0  0
   -2.5039   -0.2104    1.0183 H   0  0  0  0  0  0  0  0  0  0  0  0
   -1.7912    1.4122    0.7790 H   0  0  0  0  0  0  0  0  0  0  0  0
    2.4270    1.1582    0.6540 H   0  0  0  0  0  0  0  0  0  0  0  0
    1.9883   -0.5452    1.0047 H   0  0  0  0  0  0  0  0  0  0  0  0
    3.3521   -0.3756   -1.0886 H   0  0  0  0  0  0  0  0  0  0  0  0
    1.7267   -0.9877   -1.4205 H   0  0  0  0  0  0  0  0  0  0  0  0
    2.1297    0.6962   -1.7917 H   0  0  0  0  0  0  0  0  0  0  0  0
  1  2  1  0  0  0  0
  2  3  1  0  0  0  0
  3  4  2  0  0  0  0
  3  5  1  0  0  0  0
  5  6  1  0  0  0  0
  6  7  1  0  0  0  0
  1  8  1  0  0  0  0
  1  9  1  0  0  0  0
  1 10  1  0  0  0  0
  2 11  1  0  0  0  0
  2 12  1  0  0  0  0
  6 13  1  0  0  0  0
  6 14  1  0  0  0  0
  7 15  1  0  0  0  0
  7 16  1  0  0  0  0
  7 17  1  0  0  0  0
M  END
