17
 xtb: 6.7.1 (edcfbbe)
C           -3.00443271651917        0.03626522091632        0.08551499805798
C           -1.66024076047824        0.71318837654756        0.30069211839202
C           -0.49184804945620       -0.16379565551506       -0.05116305785979
O           -0.56717366207812       -1.27270533904366       -0.55600940943640
O            0.67888869162909        0.42783549755608        0.25035933155510
C            1.89097713300743       -0.32692727131013       -0.06776163237056
C            3.06605598764227        0.51834885358534        0.35277738136321
H           -3.14251235053508       -0.24561694716653       -0.96173508583954
H           -3.09359460732442       -0.86660426653174        0.69613061166308
H           -3.81235970405241        0.71722985483810        0.36399645639710
H           -1.53322374173098        1.03545765621440        1.34020184900469
H           -1.57203616202927        1.62238351384793       -0.30698111642923
H            1.85704007587773       -1.27734257718882        0.47358011236823
H            1.89757330280111       -0.53132921801344       -1.14268621953537
H            3.04195060885458        0.71987245193309        1.42752460647860
H            3.99084622907279       -0.01980850545552        0.12509295509284
H            3.08055934795053        1.46927154218945       -0.18743574007364
