 xtb: 6.7.1 (edcfbbe)
          04112510583D

 12 11  0     0  0            999 V2000
    0.2507   -0.5029   -0.8228 C   0  0  0  0  0  0  0  0  0  0  0  0
    0.5265   -0.6329   -1.8756 H   0  0  0  0  0  0  0  0  0  0  0  0
    1.2569    0.4489   -0.1468 C   0  0  0  0  0  0  0  0  0  0  0  0
    2.5119    0.0514   -0.3660 F   0  0  0  0  0  0  0  0  0  0  0  0
    1.0953    0.5253    1.1771 F   0  0  0  0  0  0  0  0  0  0  0  0
    1.1473    1.6888   -0.6311 F   0  0  0  0  0  0  0  0  0  0  0  0
   -1.0450   -0.0230   -0.8269 O   0  0  0  0  0  0  0  0  0  0  0  0
   -1.6738    0.2162    0.3644 C   0  0  0  0  0  0  0  0  0  0  0  0
   -2.9910    0.1084    0.1473 F   0  0  0  0  0  0  0  0  0  0  0  0
   -1.4685    1.4950    0.7674 F   0  0  0  0  0  0  0  0  0  0  0  0
    0.3922   -2.0902    0.0100 Cl  0  0  0  0  0  0  0  0  0  0  0  0
   -1.3844   -0.4559    1.1877 H   0  0  0  0  0  0  0  0  0  0  0  0
  1  2  1  0  0  0  0
  1  3  1  0  0  0  0
  3  4  1  0  0  0  0
  3  5  1  0  0  0  0
  3  6  1  0  0  0  0
  1  7  1  0  0  0  0
  7  8  1  0  0  0  0
  8  9  1  0  0  0  0
  8 10  1  0  0  0  0
  1 11  1  0  0  0  0
  8 12  1  0  0  0  0
M  END
