 xtb: 6.7.1 (edcfbbe)
          04072505513D

 15 14  0     0  0            999 V2000
    1.9587   -0.9520   -0.1050 C   0  0  0  0  0  0  0  0  0  0  0  0
    1.8730    0.5691   -0.1556 C   0  0  0  0  0  0  0  0  0  0  0  0
    0.5439    1.1302    0.3530 C   0  0  0  0  0  0  0  0  0  0  0  0
   -0.6585    0.7470   -0.5086 C   0  0  0  0  0  0  0  0  0  0  0  0
   -1.6808   -0.6032    0.1940 S   0  0  0  0  0  0  0  0  0  0  0  0
    1.7469   -1.3125    0.8993 H   0  0  0  0  0  0  0  0  0  0  0  0
    2.9581   -1.2795   -0.3813 H   0  0  0  0  0  0  0  0  0  0  0  0
    1.2557   -1.4067   -0.7990 H   0  0  0  0  0  0  0  0  0  0  0  0
    2.0341    0.9076   -1.1817 H   0  0  0  0  0  0  0  0  0  0  0  0
    2.6722    0.9889    0.4587 H   0  0  0  0  0  0  0  0  0  0  0  0
    0.6200    2.2195    0.3714 H   0  0  0  0  0  0  0  0  0  0  0  0
    0.3734    0.7984    1.3794 H   0  0  0  0  0  0  0  0  0  0  0  0
   -1.3655    1.5725   -0.5854 H   0  0  0  0  0  0  0  0  0  0  0  0
   -0.3610    0.4486   -1.5126 H   0  0  0  0  0  0  0  0  0  0  0  0
   -0.7563   -1.5543    0.1395 H   0  0  0  0  0  0  0  0  0  0  0  0
  1  2  1  0  0  0  0
  2  3  1  0  0  0  0
  3  4  1  0  0  0  0
  4  5  1  0  0  0  0
  1  6  1  0  0  0  0
  1  7  1  0  0  0  0
  1  8  1  0  0  0  0
  2  9  1  0  0  0  0
  2 10  1  0  0  0  0
  3 11  1  0  0  0  0
  3 12  1  0  0  0  0
  4 13  1  0  0  0  0
  4 14  1  0  0  0  0
  5 15  1  0  0  0  0
M  END
