  11
 
 C          0.8720000000       -0.5290000000        0.4010000000
 C          1.2560000000        0.0260000000        1.7670000000
 H          1.3860000000        1.1100000000        1.6750000000
 C          0.2160000000       -0.2400000000        2.8570000000
 Cl        -0.0990000000       -1.9710000000        3.1380000000
 Cl         2.8550000000       -0.6170000000        2.2520000000
 H          0.7260000000       -1.6140000000        0.4190000000
 H         -0.0610000000       -0.0760000000        0.0480000000
 H          1.6480000000       -0.3040000000       -0.3390000000
 H          0.5510000000        0.1830000000        3.8090000000
 H         -0.7400000000        0.2290000000        2.6040000000
