 xtb: 6.7.1 (edcfbbe)
          04112511573D

 14 13  0     0  0            999 V2000
    2.4070   -0.0050   -0.1534 C   0  0  0  0  0  0  0  0  0  0  0  0
    1.1607    0.1169    0.4976 O   0  0  0  0  0  0  0  0  0  0  0  0
    0.0598   -0.0745   -0.3661 C   0  0  0  0  0  0  0  0  0  0  0  0
   -1.2347    0.0793    0.4471 C   0  0  0  0  0  0  0  0  0  0  0  0
   -2.4525   -0.0956   -0.3202 N   0  0  0  0  0  0  0  0  0  0  0  0
    2.5271   -1.0051   -0.5847 H   0  0  0  0  0  0  0  0  0  0  0  0
    3.1648    0.1619    0.6076 H   0  0  0  0  0  0  0  0  0  0  0  0
    2.5079    0.7417   -0.9489 H   0  0  0  0  0  0  0  0  0  0  0  0
    0.0884    0.6682   -1.1804 H   0  0  0  0  0  0  0  0  0  0  0  0
    0.1079   -1.0789   -0.8181 H   0  0  0  0  0  0  0  0  0  0  0  0
   -1.2243   -0.6541    1.2565 H   0  0  0  0  0  0  0  0  0  0  0  0
   -1.2459    1.0750    0.8960 H   0  0  0  0  0  0  0  0  0  0  0  0
   -2.4645   -1.0184   -0.7414 H   0  0  0  0  0  0  0  0  0  0  0  0
   -2.4862    0.5843   -1.0723 H   0  0  0  0  0  0  0  0  0  0  0  0
  1  2  1  0  0  0  0
  2  3  1  0  0  0  0
  3  4  1  0  0  0  0
  4  5  1  0  0  0  0
  1  6  1  0  0  0  0
  1  7  1  0  0  0  0
  1  8  1  0  0  0  0
  3  9  1  0  0  0  0
  3 10  1  0  0  0  0
  4 11  1  0  0  0  0
  4 12  1  0  0  0  0
  5 13  1  0  0  0  0
  5 14  1  0  0  0  0
M  END
