  12
 
 C          0.2270000000       -0.4200000000        0.9730000000
 C         -0.6320000000       -1.3220000000        1.5800000000
 N         -0.4090000000       -1.8820000000        2.7910000000
 C          0.7300000000       -1.5160000000        3.4210000000
 C          1.6520000000       -0.6230000000        2.9000000000
 C          1.3880000000       -0.0680000000        1.6520000000
 C          2.3060000000        0.8580000000        1.0690000000
 N          3.0530000000        1.6120000000        0.5950000000
 H         -0.0130000000       -0.0080000000       -0.0020000000
 H         -1.5510000000       -1.6290000000        1.0930000000
 H          0.8890000000       -1.9760000000        4.3910000000
 H          2.5480000000       -0.3730000000        3.4590000000
