 8

C      0.154000    -0.725000     0.806000
C      1.367000    -0.368000     1.639000
Cl     2.832000    -0.357000     0.634000
H     -0.744000    -0.730000     1.431000
H     -0.000000     0.000000     0.000000
H      0.259000    -1.719000     0.359000
H      1.514000    -1.096000     2.442000
H      1.255000     0.625000     2.083000
