 xtb: 6.7.1 (edcfbbe)
          04082510523D

 16 15  0     0  0            999 V2000
   -2.0166    0.6407   -0.4558 C   0  0  0  0  0  0  0  0  0  0  0  0
   -1.6314   -0.4450    0.5425 C   0  0  0  0  0  0  0  0  0  0  0  0
   -0.2680   -1.0519    0.2141 C   0  0  0  0  0  0  0  0  0  0  0  0
    0.8846   -0.1176    0.4937 C   0  0  0  0  0  0  0  0  0  0  0  0
    0.8000    0.8299    1.2499 O   0  0  0  0  0  0  0  0  0  0  0  0
    2.1564   -0.4577   -0.2291 C   0  0  0  0  0  0  0  0  0  0  0  0
   -2.9910    1.0548   -0.2099 H   0  0  0  0  0  0  0  0  0  0  0  0
   -2.0578    0.2372   -1.4652 H   0  0  0  0  0  0  0  0  0  0  0  0
   -1.2875    1.4481   -0.4327 H   0  0  0  0  0  0  0  0  0  0  0  0
   -2.3872   -1.2318    0.5359 H   0  0  0  0  0  0  0  0  0  0  0  0
   -1.5927   -0.0154    1.5456 H   0  0  0  0  0  0  0  0  0  0  0  0
   -0.0997   -1.9346    0.8372 H   0  0  0  0  0  0  0  0  0  0  0  0
   -0.2292   -1.3718   -0.8275 H   0  0  0  0  0  0  0  0  0  0  0  0
    2.3327   -1.5288   -0.2091 H   0  0  0  0  0  0  0  0  0  0  0  0
    2.9953    0.0753    0.2096 H   0  0  0  0  0  0  0  0  0  0  0  0
    2.0513   -0.1508   -1.2680 H   0  0  0  0  0  0  0  0  0  0  0  0
  1  2  1  0  0  0  0
  2  3  1  0  0  0  0
  3  4  1  0  0  0  0
  4  5  2  0  0  0  0
  4  6  1  0  0  0  0
  1  7  1  0  0  0  0
  1  8  1  0  0  0  0
  1  9  1  0  0  0  0
  2 10  1  0  0  0  0
  2 11  1  0  0  0  0
  3 12  1  0  0  0  0
  3 13  1  0  0  0  0
  6 14  1  0  0  0  0
  6 15  1  0  0  0  0
  6 16  1  0  0  0  0
M  END
