 xtb: 6.7.1 (edcfbbe)
          04112511553D

 24 24  0     0  0            999 V2000
   -2.6884   -1.1813   -0.4166 C   0  0  0  0  0  0  0  0  0  0  0  0
   -2.4471    0.1109    0.3556 C   0  0  0  0  0  0  0  0  0  0  0  0
   -1.1775    0.8680   -0.0470 C   0  0  0  0  0  0  0  0  0  0  0  0
    0.1272    0.3162    0.5354 C   0  0  0  0  0  0  0  0  0  0  0  0
    0.6059   -0.9974   -0.1066 C   0  0  0  0  0  0  0  0  0  0  0  0
    2.1290   -0.8973   -0.1190 C   0  0  0  0  0  0  0  0  0  0  0  0
    2.3619    0.5653   -0.4786 C   0  0  0  0  0  0  0  0  0  0  0  0
    1.3015    1.3075    0.3391 C   0  0  0  0  0  0  0  0  0  0  0  0
   -3.6598   -1.5949   -0.1540 H   0  0  0  0  0  0  0  0  0  0  0  0
   -2.6777   -0.9911   -1.4876 H   0  0  0  0  0  0  0  0  0  0  0  0
   -1.9317   -1.9255   -0.1907 H   0  0  0  0  0  0  0  0  0  0  0  0
   -3.3010    0.7717    0.1854 H   0  0  0  0  0  0  0  0  0  0  0  0
   -2.4114   -0.1059    1.4256 H   0  0  0  0  0  0  0  0  0  0  0  0
   -1.1038    0.9010   -1.1365 H   0  0  0  0  0  0  0  0  0  0  0  0
   -1.2840    1.8970    0.3068 H   0  0  0  0  0  0  0  0  0  0  0  0
   -0.0258    0.1552    1.6071 H   0  0  0  0  0  0  0  0  0  0  0  0
    0.2607   -1.8739    0.4397 H   0  0  0  0  0  0  0  0  0  0  0  0
    0.2411   -1.0619   -1.1326 H   0  0  0  0  0  0  0  0  0  0  0  0
    2.5276   -1.1048    0.8756 H   0  0  0  0  0  0  0  0  0  0  0  0
    2.5875   -1.5866   -0.8268 H   0  0  0  0  0  0  0  0  0  0  0  0
    3.3721    0.9020   -0.2500 H   0  0  0  0  0  0  0  0  0  0  0  0
    2.1847    0.7115   -1.5453 H   0  0  0  0  0  0  0  0  0  0  0  0
    1.7122    1.5960    1.3071 H   0  0  0  0  0  0  0  0  0  0  0  0
    0.9764    2.2161   -0.1663 H   0  0  0  0  0  0  0  0  0  0  0  0
  1  2  1  0  0  0  0
  2  3  1  0  0  0  0
  3  4  1  0  0  0  0
  4  5  1  0  0  0  0
  5  6  1  0  0  0  0
  6  7  1  0  0  0  0
  4  8  1  0  0  0  0
  7  8  1  0  0  0  0
  1  9  1  0  0  0  0
  1 10  1  0  0  0  0
  1 11  1  0  0  0  0
  2 12  1  0  0  0  0
  2 13  1  0  0  0  0
  3 14  1  0  0  0  0
  3 15  1  0  0  0  0
  4 16  1  0  0  0  0
  5 17  1  0  0  0  0
  5 18  1  0  0  0  0
  6 19  1  0  0  0  0
  6 20  1  0  0  0  0
  7 21  1  0  0  0  0
  7 22  1  0  0  0  0
  8 23  1  0  0  0  0
  8 24  1  0  0  0  0
M  END
