 20

C     -0.131000     1.111000    -0.183000
C     -0.713000     1.321000    -1.548000
O     -0.167000     1.965000    -2.434000
O     -1.919000     0.690000    -1.632000
C     -2.590000     0.810000    -2.890000
C     -3.902000     0.060000    -2.814000
O     -3.641000    -1.309000    -2.531000
C     -4.741000    -2.116000    -2.433000
O     -5.905000    -1.766000    -2.565000
C     -4.316000    -3.522000    -2.134000
H     -0.456000     1.912000     0.485000
H      0.960000     1.080000    -0.246000
H     -0.483000     0.157000     0.218000
H     -2.747000     1.873000    -3.082000
H     -1.941000     0.383000    -3.656000
H     -4.447000     0.114000    -3.762000
H     -4.522000     0.464000    -2.009000
H     -4.265000    -3.672000    -1.052000
H     -3.346000    -3.722000    -2.596000
H     -5.049000    -4.219000    -2.549000
