 xtb: 6.7.1 (edcfbbe)
          04112514293D

 35 35  0     0  0            999 V2000
   -0.3477   -2.6806   -0.1752 C   0  0  0  0  0  0  0  0  0  0  0  0
    0.4774   -1.4397   -0.0529 C   0  0  0  0  0  0  0  0  0  0  0  0
    1.8446   -1.3954   -0.3687 C   0  0  0  0  0  0  0  0  0  0  0  0
    2.5616   -0.2946   -0.2355 N   0  0  0  0  0  0  0  0  0  0  0  0
    1.9556    0.8167    0.2119 C   0  0  0  0  0  0  0  0  0  0  0  0
    0.6408    0.8876    0.4983 N   0  0  0  0  0  0  0  0  0  0  0  0
   -0.0522   -0.2219    0.3544 C   0  0  0  0  0  0  0  0  0  0  0  0
   -1.3973   -0.1042    0.6920 O   0  0  0  0  0  0  0  0  0  0  0  0
   -2.2836   -0.1025   -0.3459 C   0  0  0  0  0  0  0  0  0  0  0  0
   -1.9281   -0.2119   -1.5104 O   0  0  0  0  0  0  0  0  0  0  0  0
   -3.5482    0.0253    0.0580 N   0  0  0  0  0  0  0  0  0  0  0  0
   -4.6197    0.0351   -0.9154 C   0  0  0  0  0  0  0  0  0  0  0  0
   -3.9519    0.1635    1.4407 C   0  0  0  0  0  0  0  0  0  0  0  0
    2.6959    1.9172    0.3760 N   0  0  0  0  0  0  0  0  0  0  0  0
    2.1308    3.1609    0.8380 C   0  0  0  0  0  0  0  0  0  0  0  0
    4.1074    1.9362    0.0772 C   0  0  0  0  0  0  0  0  0  0  0  0
    2.5636   -2.6024   -0.8752 C   0  0  0  0  0  0  0  0  0  0  0  0
   -0.6620   -2.8194   -1.2105 H   0  0  0  0  0  0  0  0  0  0  0  0
    0.2218   -3.5520    0.1366 H   0  0  0  0  0  0  0  0  0  0  0  0
   -1.2406   -2.6013    0.4418 H   0  0  0  0  0  0  0  0  0  0  0  0
   -4.1898   -0.0916   -1.9060 H   0  0  0  0  0  0  0  0  0  0  0  0
   -5.1539    0.9842   -0.8676 H   0  0  0  0  0  0  0  0  0  0  0  0
   -5.3116   -0.7812   -0.7075 H   0  0  0  0  0  0  0  0  0  0  0  0
   -4.5544    1.0654    1.5489 H   0  0  0  0  0  0  0  0  0  0  0  0
   -3.0749    0.2359    2.0758 H   0  0  0  0  0  0  0  0  0  0  0  0
   -4.5475   -0.7014    1.7367 H   0  0  0  0  0  0  0  0  0  0  0  0
    2.2694    3.9347    0.0808 H   0  0  0  0  0  0  0  0  0  0  0  0
    2.6280    3.4721    1.7583 H   0  0  0  0  0  0  0  0  0  0  0  0
    1.0712    3.0188    1.0239 H   0  0  0  0  0  0  0  0  0  0  0  0
    4.6682    2.2130    0.9712 H   0  0  0  0  0  0  0  0  0  0  0  0
    4.3093    2.6664   -0.7084 H   0  0  0  0  0  0  0  0  0  0  0  0
    4.4087    0.9482   -0.2552 H   0  0  0  0  0  0  0  0  0  0  0  0
    3.5818   -2.3315   -1.1335 H   0  0  0  0  0  0  0  0  0  0  0  0
    2.5802   -3.3746   -0.1087 H   0  0  0  0  0  0  0  0  0  0  0  0
    2.0532   -2.9997   -1.7492 H   0  0  0  0  0  0  0  0  0  0  0  0
  1  2  1  0  0  0  0
  2  3  4  0  0  0  0
  3  4  4  0  0  0  0
  4  5  4  0  0  0  0
  5  6  4  0  0  0  0
  2  7  4  0  0  0  0
  6  7  4  0  0  0  0
  7  8  1  0  0  0  0
  8  9  1  0  0  0  0
  9 10  2  0  0  0  0
  9 11  4  0  0  0  0
 11 12  1  0  0  0  0
 11 13  1  0  0  0  0
  5 14  4  0  0  0  0
 14 15  1  0  0  0  0
 14 16  1  0  0  0  0
  3 17  1  0  0  0  0
  1 18  1  0  0  0  0
  1 19  1  0  0  0  0
  1 20  1  0  0  0  0
 12 21  1  0  0  0  0
 12 22  1  0  0  0  0
 12 23  1  0  0  0  0
 13 24  1  0  0  0  0
 13 25  1  0  0  0  0
 13 26  1  0  0  0  0
 15 27  1  0  0  0  0
 15 28  1  0  0  0  0
 15 29  1  0  0  0  0
 16 30  1  0  0  0  0
 16 31  1  0  0  0  0
 16 32  1  0  0  0  0
 17 33  1  0  0  0  0
 17 34  1  0  0  0  0
 17 35  1  0  0  0  0
M  END
