 xtb: 6.7.1 (edcfbbe)
          04112511553D

 13 12  0     0  0            999 V2000
   -2.0710   -0.5505    0.1344 C   0  0  0  0  0  0  0  0  0  0  0  0
   -1.3023    0.6254   -0.0341 O   0  0  0  0  0  0  0  0  0  0  0  0
   -0.0040    0.4185   -0.5479 C   0  0  0  0  0  0  0  0  0  0  0  0
    0.9643   -0.2068    0.4707 C   0  0  0  0  0  0  0  0  0  0  0  0
    2.2808   -0.2730   -0.0227 O   0  0  0  0  0  0  0  0  0  0  0  0
   -2.0889   -1.1376   -0.7892 H   0  0  0  0  0  0  0  0  0  0  0  0
   -3.0765   -0.2141    0.3758 H   0  0  0  0  0  0  0  0  0  0  0  0
   -1.6876   -1.1692    0.9500 H   0  0  0  0  0  0  0  0  0  0  0  0
   -0.0404   -0.2076   -1.4504 H   0  0  0  0  0  0  0  0  0  0  0  0
    0.3483    1.4165   -0.8228 H   0  0  0  0  0  0  0  0  0  0  0  0
    0.6824   -1.2411    0.6799 H   0  0  0  0  0  0  0  0  0  0  0  0
    0.9189    0.3659    1.4063 H   0  0  0  0  0  0  0  0  0  0  0  0
    2.6151    0.6222   -0.1749 H   0  0  0  0  0  0  0  0  0  0  0  0
  1  2  1  0  0  0  0
  2  3  1  0  0  0  0
  3  4  1  0  0  0  0
  4  5  1  0  0  0  0
  1  6  1  0  0  0  0
  1  7  1  0  0  0  0
  1  8  1  0  0  0  0
  3  9  1  0  0  0  0
  3 10  1  0  0  0  0
  4 11  1  0  0  0  0
  4 12  1  0  0  0  0
  5 13  1  0  0  0  0
M  END
