 xtb: 6.7.1 (edcfbbe)
          04112512383D

 25 25  0     0  0            999 V2000
    3.0707   -0.5558    1.2384 C   0  0  0  0  0  0  0  0  0  0  0  0
    2.5969    0.0118   -0.0653 C   0  0  0  0  0  0  0  0  0  0  0  0
    3.4468    0.3436   -1.0256 C   0  0  0  0  0  0  0  0  0  0  0  0
    1.1096    0.1850   -0.2574 C   0  0  0  0  0  0  0  0  0  0  0  0
    0.9492    0.6302   -1.2450 H   0  0  0  0  0  0  0  0  0  0  0  0
    0.3571   -1.1513   -0.2240 C   0  0  0  0  0  0  0  0  0  0  0  0
   -1.0808   -0.9350   -0.6834 C   0  0  0  0  0  0  0  0  0  0  0  0
   -1.7156    0.2184    0.0409 C   0  0  0  0  0  0  0  0  0  0  0  0
   -0.9931    1.1370    0.7021 C   0  0  0  0  0  0  0  0  0  0  0  0
    0.4887    1.1198    0.7873 C   0  0  0  0  0  0  0  0  0  0  0  0
   -3.1619    0.3167    0.0165 C   0  0  0  0  0  0  0  0  0  0  0  0
   -3.9177   -0.4683   -0.5286 O   0  0  0  0  0  0  0  0  0  0  0  0
    4.1364   -0.7624    1.1957 H   0  0  0  0  0  0  0  0  0  0  0  0
    2.8947    0.1478    2.0503 H   0  0  0  0  0  0  0  0  0  0  0  0
    2.5461   -1.4795    1.4707 H   0  0  0  0  0  0  0  0  0  0  0  0
    3.1171    0.7559   -1.9645 H   0  0  0  0  0  0  0  0  0  0  0  0
    4.5104    0.2166   -0.9142 H   0  0  0  0  0  0  0  0  0  0  0  0
    0.8496   -1.8757   -0.8739 H   0  0  0  0  0  0  0  0  0  0  0  0
    0.3519   -1.5476    0.7920 H   0  0  0  0  0  0  0  0  0  0  0  0
   -1.1106   -0.7317   -1.7580 H   0  0  0  0  0  0  0  0  0  0  0  0
   -1.6860   -1.8290   -0.5161 H   0  0  0  0  0  0  0  0  0  0  0  0
   -1.4996    1.9375    1.2249 H   0  0  0  0  0  0  0  0  0  0  0  0
    0.8766    2.1338    0.6690 H   0  0  0  0  0  0  0  0  0  0  0  0
    0.7595    0.7918    1.7953 H   0  0  0  0  0  0  0  0  0  0  0  0
   -3.5745    1.1932    0.5516 H   0  0  0  0  0  0  0  0  0  0  0  0
  1  2  1  0  0  0  0
  2  3  2  0  0  0  0
  2  4  1  0  0  0  0
  4  5  1  0  0  0  0
  4  6  1  0  0  0  0
  6  7  1  0  0  0  0
  7  8  1  0  0  0  0
  8  9  2  0  0  0  0
  4 10  1  0  0  0  0
  9 10  1  0  0  0  0
  8 11  1  0  0  0  0
 11 12  2  0  0  0  0
  1 13  1  0  0  0  0
  1 14  1  0  0  0  0
  1 15  1  0  0  0  0
  3 16  1  0  0  0  0
  3 17  1  0  0  0  0
  6 18  1  0  0  0  0
  6 19  1  0  0  0  0
  7 20  1  0  0  0  0
  7 21  1  0  0  0  0
  9 22  1  0  0  0  0
 10 23  1  0  0  0  0
 10 24  1  0  0  0  0
 11 25  1  0  0  0  0
M  END
