  20
 
 C          0.2315890821       -2.3445805688       -0.1080922250
 O         -0.1449841207       -1.1454666261       -0.7637603239
 C         -0.4363679698       -0.0558797286        0.0393561346
 C          0.7503263247        0.4021920325        0.9193272095
 Cl         2.2291557212        0.4513099835       -0.0394680969
 O         -0.7506917582        1.0219149897       -0.7685927442
 C         -1.6998594807        0.7569219502       -1.7967337584
 O         -1.5265323287       -0.4337765377        0.8612468619
 C         -2.0857563263        0.5825664196        1.6701897933
 H          0.2173899760       -3.1061563120       -0.8845874998
 H         -0.4822516022       -2.5993836145        0.6769161653
 H          1.2403293509       -2.2685465835        0.3078171137
 H          0.8955293886       -0.2895236228        1.7483114483
 H          0.5564821119        1.4103878676        1.2809096181
 H         -1.9921041824        1.7332015864       -2.1766210492
 H         -2.5658795159        0.2295003645       -1.3913862817
 H         -1.2462468952        0.1599289798       -2.5888166743
 H         -3.0859529033        0.2386554218        1.9273078931
 H         -2.1480339897        1.5271789165        1.1253149021
 H         -1.5020206526        0.7239170433        2.5850511576
          20
        -33.05950561
 C          0.2686348325       -2.1134262917       -0.8698200876
 O         -0.6920802504       -1.4373541804       -0.0730359643
 C         -0.4795645922       -0.0873701236        0.1725562334
 C          0.7297303015        0.1705520209        1.1078170367
 Cl         2.2717773272        0.1983465128        0.2469265745
 O         -0.3731081527        0.5561900651       -1.0667587172
 C         -0.2664017599        1.9682290919       -1.0308382881
 O         -1.5593342951        0.3839340933        0.9147878259
 C         -2.8422961629        0.0846301040        0.3715031127
 H          1.1854507188       -2.3058282946       -0.3063930597
 H          0.4998697752       -1.5434327914       -1.7699228186
 H         -0.2002761382       -3.0580384999       -1.1371040756
 H          0.7618511699       -0.6238951767        1.8518636388
 H          0.5945801832        1.1335733108        1.5973444024
 H         -0.9737515136        2.3955977558       -0.3160604062
 H         -0.5079847232        2.3035603199       -2.0373643244
 H          0.7500159436        2.2810524998       -0.7767604910
 H         -2.8815236475        0.3463261839       -0.6879059353
 H         -3.5430896582        0.6925543334        0.9389122595
 H         -3.0700768050       -0.9748016052        0.4941769541
