 20

C      0.011000     0.902000    -2.228000
O      0.743000     0.907000    -1.011000
C      0.296000    -0.035000    -0.011000
C      0.847000    -1.441000    -0.340000
Cl     2.531000    -1.387000    -0.931000
O      0.864000     0.317000     1.272000
C      0.499000     1.616000     1.723000
O     -1.145000    -0.052000     0.043000
C     -1.723000    -0.940000     0.989000
H      0.430000     1.647000    -2.909000
H     -1.039000     1.128000    -2.025000
H      0.087000    -0.088000    -2.685000
H      0.244000    -1.946000    -1.101000
H      0.861000    -2.079000     0.549000
H      0.965000     1.804000     2.691000
H     -0.587000     1.675000     1.806000
H      0.852000     2.349000     0.997000
H     -2.810000    -0.864000     0.937000
H     -1.372000    -0.679000     1.989000
H     -1.415000    -1.958000     0.747000
