 xtb: 6.7.1 (edcfbbe)
          04112511133D

 21 21  0     0  0            999 V2000
   -3.3053    1.1374   -0.7396 C   0  0  0  0  0  0  0  0  0  0  0  0
   -1.9336    1.3210   -0.1759 C   0  0  0  0  0  0  0  0  0  0  0  0
   -1.6196    2.1275    0.6698 O   0  0  0  0  0  0  0  0  0  0  0  0
   -1.0733    0.4446   -0.7167 O   0  0  0  0  0  0  0  0  0  0  0  0
    0.2617    0.4370   -0.3390 C   0  0  0  0  0  0  0  0  0  0  0  0
    1.0315    1.5827   -0.4713 C   0  0  0  0  0  0  0  0  0  0  0  0
    2.3792    1.5548   -0.1566 C   0  0  0  0  0  0  0  0  0  0  0  0
    2.9711    0.3796    0.2794 C   0  0  0  0  0  0  0  0  0  0  0  0
    2.2083   -0.7634    0.4070 C   0  0  0  0  0  0  0  0  0  0  0  0
    0.8443   -0.7536    0.1116 C   0  0  0  0  0  0  0  0  0  0  0  0
    0.0965   -2.0168    0.3033 C   0  0  0  0  0  0  0  0  0  0  0  0
    0.6453   -3.0789    0.5324 O   0  0  0  0  0  0  0  0  0  0  0  0
   -1.2204   -1.9123    0.2284 O   0  0  0  0  0  0  0  0  0  0  0  0
   -3.7851    2.1053   -0.8496 H   0  0  0  0  0  0  0  0  0  0  0  0
   -3.8864    0.5486   -0.0330 H   0  0  0  0  0  0  0  0  0  0  0  0
   -3.2524    0.6098   -1.6855 H   0  0  0  0  0  0  0  0  0  0  0  0
    0.5651    2.4916   -0.8178 H   0  0  0  0  0  0  0  0  0  0  0  0
    2.9653    2.4539   -0.2592 H   0  0  0  0  0  0  0  0  0  0  0  0
    4.0217    0.3559    0.5185 H   0  0  0  0  0  0  0  0  0  0  0  0
    2.6394   -1.6936    0.7442 H   0  0  0  0  0  0  0  0  0  0  0  0
   -1.6583   -2.7768    0.3587 H   0  0  0  0  0  0  0  0  0  0  0  0
  1  2  1  0  0  0  0
  2  3  2  0  0  0  0
  2  4  1  0  0  0  0
  4  5  1  0  0  0  0
  5  6  4  0  0  0  0
  6  7  4  0  0  0  0
  7  8  4  0  0  0  0
  8  9  4  0  0  0  0
  5 10  4  0  0  0  0
  9 10  4  0  0  0  0
 10 11  1  0  0  0  0
 11 12  2  0  0  0  0
 11 13  1  0  0  0  0
  1 14  1  0  0  0  0
  1 15  1  0  0  0  0
  1 16  1  0  0  0  0
  6 17  1  0  0  0  0
  7 18  1  0  0  0  0
  8 19  1  0  0  0  0
  9 20  1  0  0  0  0
 13 21  1  0  0  0  0
M  END
