 xtb: 6.7.1 (edcfbbe)
          04112511523D

 13 12  0     0  0            999 V2000
    2.2077   -0.6427   -0.5129 C   0  0  0  0  0  0  0  0  0  0  0  0
    0.7922   -0.8699   -0.5099 O   0  0  0  0  0  0  0  0  0  0  0  0
   -0.0614    0.3788   -0.0580 S   0  0  0  0  0  0  0  0  0  0  0  0
   -0.0466    1.3860   -1.0725 O   0  0  0  0  0  0  0  0  0  0  0  0
    0.3454    0.7740    1.2604 O   0  0  0  0  0  0  0  0  0  0  0  0
   -1.4810   -0.2516   -0.0447 O   0  0  0  0  0  0  0  0  0  0  0  0
   -1.7163   -1.2345    0.9793 C   0  0  0  0  0  0  0  0  0  0  0  0
    2.5067   -0.2741    0.4681 H   0  0  0  0  0  0  0  0  0  0  0  0
    2.4511    0.0940   -1.2778 H   0  0  0  0  0  0  0  0  0  0  0  0
    2.6618   -1.6058   -0.7323 H   0  0  0  0  0  0  0  0  0  0  0  0
   -1.2501   -0.8905    1.9016 H   0  0  0  0  0  0  0  0  0  0  0  0
   -1.2846   -2.1830    0.6635 H   0  0  0  0  0  0  0  0  0  0  0  0
   -2.7959   -1.3062    1.0841 H   0  0  0  0  0  0  0  0  0  0  0  0
  1  2  1  0  0  0  0
  2  3  1  0  0  0  0
  3  4  2  0  0  0  0
  3  5  2  0  0  0  0
  3  6  1  0  0  0  0
  6  7  1  0  0  0  0
  1  8  1  0  0  0  0
  1  9  1  0  0  0  0
  1 10  1  0  0  0  0
  7 11  1  0  0  0  0
  7 12  1  0  0  0  0
  7 13  1  0  0  0  0
M  END
