 xtb: 6.7.1 (edcfbbe)
          04112512523D

 21 20  0     0  0            999 V2000
    2.2634   -0.9766   -0.6953 C   0  0  0  0  0  0  0  0  0  0  0  0
    1.5942    0.3488   -0.3536 C   0  0  0  0  0  0  0  0  0  0  0  0
    0.3528    0.2042    0.5392 C   0  0  0  0  0  0  0  0  0  0  0  0
    0.6442   -0.3358    1.4493 H   0  0  0  0  0  0  0  0  0  0  0  0
   -0.8117   -0.5727   -0.1144 C   0  0  0  0  0  0  0  0  0  0  0  0
   -1.9006   -0.8256    0.9283 C   0  0  0  0  0  0  0  0  0  0  0  0
   -1.4052    0.1485   -1.3241 C   0  0  0  0  0  0  0  0  0  0  0  0
   -0.0594    1.4753    1.0131 O   0  0  0  0  0  0  0  0  0  0  0  0
    1.6328   -1.5805   -1.3420 H   0  0  0  0  0  0  0  0  0  0  0  0
    2.4731   -1.5416    0.2098 H   0  0  0  0  0  0  0  0  0  0  0  0
    3.2020   -0.7939   -1.2122 H   0  0  0  0  0  0  0  0  0  0  0  0
    2.3029    0.9789    0.1896 H   0  0  0  0  0  0  0  0  0  0  0  0
    1.3263    0.8731   -1.2730 H   0  0  0  0  0  0  0  0  0  0  0  0
   -0.4142   -1.5379   -0.4399 H   0  0  0  0  0  0  0  0  0  0  0  0
   -2.7490   -1.3352    0.4787 H   0  0  0  0  0  0  0  0  0  0  0  0
   -1.5175   -1.4388    1.7406 H   0  0  0  0  0  0  0  0  0  0  0  0
   -2.2403    0.1193    1.3470 H   0  0  0  0  0  0  0  0  0  0  0  0
   -1.8613    1.0896   -1.0249 H   0  0  0  0  0  0  0  0  0  0  0  0
   -2.1796   -0.4694   -1.7719 H   0  0  0  0  0  0  0  0  0  0  0  0
   -0.6505    0.3422   -2.0818 H   0  0  0  0  0  0  0  0  0  0  0  0
   -0.2592    2.0337    0.2492 H   0  0  0  0  0  0  0  0  0  0  0  0
  1  2  1  0  0  0  0
  2  3  1  0  0  0  0
  3  4  1  0  0  0  0
  3  5  1  0  0  0  0
  5  6  1  0  0  0  0
  5  7  1  0  0  0  0
  3  8  1  0  0  0  0
  1  9  1  0  0  0  0
  1 10  1  0  0  0  0
  1 11  1  0  0  0  0
  2 12  1  0  0  0  0
  2 13  1  0  0  0  0
  5 14  1  0  0  0  0
  6 15  1  0  0  0  0
  6 16  1  0  0  0  0
  6 17  1  0  0  0  0
  7 18  1  0  0  0  0
  7 19  1  0  0  0  0
  7 20  1  0  0  0  0
  8 21  1  0  0  0  0
M  END
