 xtb: 6.7.1 (edcfbbe)
          04112512423D

 17 16  0     0  0            999 V2000
   -2.3872    1.1252   -0.1462 C   0  0  0  0  0  0  0  0  0  0  0  0
   -1.8227   -0.1368    0.4998 C   0  0  0  0  0  0  0  0  0  0  0  0
   -0.4409   -0.4878    0.0087 C   0  0  0  0  0  0  0  0  0  0  0  0
   -0.0657   -1.6228   -0.2097 O   0  0  0  0  0  0  0  0  0  0  0  0
    0.3278    0.5801   -0.1476 O   0  0  0  0  0  0  0  0  0  0  0  0
    1.6853    0.3897   -0.5765 C   0  0  0  0  0  0  0  0  0  0  0  0
    2.6018    0.1187    0.6069 C   0  0  0  0  0  0  0  0  0  0  0  0
   -3.3760    1.3289    0.2537 H   0  0  0  0  0  0  0  0  0  0  0  0
   -1.7423    1.9753    0.0554 H   0  0  0  0  0  0  0  0  0  0  0  0
   -2.4672    0.9983   -1.2228 H   0  0  0  0  0  0  0  0  0  0  0  0
   -2.4658   -0.9984    0.3181 H   0  0  0  0  0  0  0  0  0  0  0  0
   -1.7451    0.0072    1.5801 H   0  0  0  0  0  0  0  0  0  0  0  0
    1.7148   -0.4442   -1.2845 H   0  0  0  0  0  0  0  0  0  0  0  0
    1.9483    1.3221   -1.0770 H   0  0  0  0  0  0  0  0  0  0  0  0
    2.5240    0.9236    1.3328 H   0  0  0  0  0  0  0  0  0  0  0  0
    2.3251   -0.8186    1.0848 H   0  0  0  0  0  0  0  0  0  0  0  0
    3.6270    0.0470    0.2589 H   0  0  0  0  0  0  0  0  0  0  0  0
  1  2  1  0  0  0  0
  2  3  1  0  0  0  0
  3  4  2  0  0  0  0
  3  5  1  0  0  0  0
  5  6  1  0  0  0  0
  6  7  1  0  0  0  0
  1  8  1  0  0  0  0
  1  9  1  0  0  0  0
  1 10  1  0  0  0  0
  2 11  1  0  0  0  0
  2 12  1  0  0  0  0
  6 13  1  0  0  0  0
  6 14  1  0  0  0  0
  7 15  1  0  0  0  0
  7 16  1  0  0  0  0
  7 17  1  0  0  0  0
M  END
