21
 xtb: 6.7.1 (edcfbbe)
C            2.43025512912897        0.64271932394978       -0.62390295561094
C            1.10054293954385       -0.05547120474633       -0.37661603213856
H            0.75314377295154       -0.50135378886591       -1.32023334833139
C            0.05245388658274        0.91602456366007        0.15035808988348
C           -1.41670587270795        0.45389838044065        0.18510795689087
C           -1.90839221844828       -0.01059123482068       -1.18736695651187
C           -1.71691008046370       -0.60474630250919        1.24933117214488
O            1.27332551580265       -1.11300190314475        0.60027097700609
H            2.33126428205741        1.38836287546422       -1.41958244006206
H            2.77623729158305        1.14737075867709        0.28526219697816
H            3.19320025079835       -0.08072602061811       -0.93222445525469
H            0.36081848023888        1.23422168335476        1.15630180982867
H            0.10539815029438        1.80728581262302       -0.48761375822338
H           -1.99317722034039        1.35036590976265        0.45403947204304
H           -2.99137297967920       -0.17526879344634       -1.17391561677439
H           -1.43709264444650       -0.95640321641556       -1.47791395214386
H           -1.68842445321037        0.72947328906345       -1.96538019848910
H           -1.32333361836031       -0.31135459556353        2.22875265158766
H           -2.79929407301181       -0.74457459338725        1.35041562119985
H           -1.28135949768301       -1.57361244515868        0.98659711439173
H            1.95755404473974       -1.70385056050107        0.25927535757988
