 xtb: 6.7.1 (edcfbbe)
          04112512413D

 21 20  0     0  0            999 V2000
    2.4211   -0.1691   -0.9230 C   0  0  0  0  0  0  0  0  0  0  0  0
    1.2520   -0.2835    0.0515 C   0  0  0  0  0  0  0  0  0  0  0  0
    1.0686   -1.3498    0.2577 H   0  0  0  0  0  0  0  0  0  0  0  0
   -0.0112    0.3597   -0.5369 C   0  0  0  0  0  0  0  0  0  0  0  0
   -1.3075    0.0539    0.2250 C   0  0  0  0  0  0  0  0  0  0  0  0
   -2.4079    1.0140   -0.2261 C   0  0  0  0  0  0  0  0  0  0  0  0
   -1.7592   -1.3893    0.0095 C   0  0  0  0  0  0  0  0  0  0  0  0
    1.6573    0.3525    1.2552 O   0  0  0  0  0  0  0  0  0  0  0  0
    2.2095   -0.7234   -1.8318 H   0  0  0  0  0  0  0  0  0  0  0  0
    2.5937    0.8757   -1.1670 H   0  0  0  0  0  0  0  0  0  0  0  0
    3.3200   -0.5671   -0.4601 H   0  0  0  0  0  0  0  0  0  0  0  0
    0.1522    1.4400   -0.5517 H   0  0  0  0  0  0  0  0  0  0  0  0
   -0.1217    0.0232   -1.5688 H   0  0  0  0  0  0  0  0  0  0  0  0
   -1.1411    0.2101    1.2973 H   0  0  0  0  0  0  0  0  0  0  0  0
   -2.5889    0.9036   -1.2929 H   0  0  0  0  0  0  0  0  0  0  0  0
   -2.1241    2.0454   -0.0306 H   0  0  0  0  0  0  0  0  0  0  0  0
   -3.3349    0.8068    0.3031 H   0  0  0  0  0  0  0  0  0  0  0  0
   -2.6756   -1.5833    0.5618 H   0  0  0  0  0  0  0  0  0  0  0  0
   -1.9498   -1.5695   -1.0461 H   0  0  0  0  0  0  0  0  0  0  0  0
   -1.0048   -2.0954    0.3468 H   0  0  0  0  0  0  0  0  0  0  0  0
    0.9267    0.3355    1.8870 H   0  0  0  0  0  0  0  0  0  0  0  0
  1  2  1  0  0  0  0
  2  3  1  0  0  0  0
  2  4  1  0  0  0  0
  4  5  1  0  0  0  0
  5  6  1  0  0  0  0
  5  7  1  0  0  0  0
  2  8  1  0  0  0  0
  1  9  1  0  0  0  0
  1 10  1  0  0  0  0
  1 11  1  0  0  0  0
  4 12  1  0  0  0  0
  4 13  1  0  0  0  0
  5 14  1  0  0  0  0
  6 15  1  0  0  0  0
  6 16  1  0  0  0  0
  6 17  1  0  0  0  0
  7 18  1  0  0  0  0
  7 19  1  0  0  0  0
  7 20  1  0  0  0  0
  8 21  1  0  0  0  0
M  END
