  19
 
 C         -2.6591496890        0.6082180211        0.7355825368
 C         -1.8794899284        0.4565200600       -0.5718427922
 C         -0.4062396559        0.3490129108       -0.3031720184
 C          0.3984179570        1.4750851207       -0.2377430247
 C          1.7521415318        1.3824299136        0.0383035411
 C          2.3226909352        0.1414442687        0.2525966574
 C          1.5381729361       -0.9966645244        0.1937737546
 C          0.1799018852       -0.9005503299       -0.0766089063
 O         -0.6119880905       -2.0110985166       -0.1348688875
 H         -3.7243691254        0.6954341966        0.5339371013
 H         -2.3315861067        1.4961962728        1.2723246621
 H         -2.4960479781       -0.2589948430        1.3705655778
 H         -2.0724512791        1.3197105504       -1.2120119094
 H         -2.2170840747       -0.4439185754       -1.0860236311
 H         -0.0489244444        2.4436486633       -0.4107745579
 H          2.3581794101        2.2746864004        0.0828034729
 H          3.3778796157        0.0530401753        0.4645247791
 H          1.9798290558       -1.9716172143        0.3596978625
 H         -0.0733684496       -2.7961391056        0.0192539464
          19
        -26.28835361
 C         -2.6318135407       -0.6101475172        0.7610948499
 C         -1.8528618368       -0.5690952619       -0.5546905894
 C         -0.3854949491       -0.3843057620       -0.2962364208
 C          0.4782875563       -1.4648151162       -0.2224589757
 C          1.8259863913       -1.2967633963        0.0481831148
 C          2.3294968775       -0.0253554611        0.2502272827
 C          1.4852322464        1.0686175871        0.1816772449
 C          0.1339174903        0.8971778422       -0.0856325509
 O         -0.7163792890        1.9627793107       -0.1558701098
 H         -3.6925621076       -0.7549805212        0.5697486351
 H         -2.5011138127        0.3243666547        1.3007458196
 H         -2.2754094031       -1.4251733081        1.3878376443
 H         -2.2189822578        0.2623831958       -1.1587792869
 H         -2.0136510064       -1.4990580997       -1.1033432222
 H          0.0840511560       -2.4578200531       -0.3844476302
 H          2.4791525172       -2.1547032764        0.0989449330
 H          3.3784588290        0.1209781811        0.4605437613
 H          1.8744368932        2.0671357635        0.3378308760
 H         -0.2206158285        2.7776962275       -0.0139362130
