 19

C      2.652000     0.218000    -2.130000
C      1.947000    -1.023000    -1.604000
C      1.885000    -1.036000    -0.112000
C      2.921000    -1.631000     0.608000
C      2.878000    -1.652000     2.002000
C      1.800000    -1.079000     2.676000
C      0.764000    -0.484000     1.955000
C      0.807000    -0.463000     0.561000
O     -0.214000     0.121000    -0.128000
H      2.693000     0.218000    -3.224000
H      3.679000     0.258000    -1.753000
H      2.138000     1.131000    -1.813000
H      2.465000    -1.922000    -1.960000
H      0.932000    -1.075000    -2.016000
H      3.766000    -2.079000     0.093000
H      3.685000    -2.114000     2.564000
H      1.767000    -1.094000     3.761000
H     -0.074000    -0.039000     2.486000
H     -0.878000     0.467000     0.488000
