 xtb: 6.7.1 (edcfbbe)
          04112511103D

 18 17  0     0  0            999 V2000
    2.8346   -0.2816    0.1737 C   0  0  0  0  0  0  0  0  0  0  0  0
    1.5160    0.2921   -0.3324 C   0  0  0  0  0  0  0  0  0  0  0  0
    0.3208   -0.4825    0.2216 C   0  0  0  0  0  0  0  0  0  0  0  0
   -1.0284   -0.0015   -0.3292 C   0  0  0  0  0  0  0  0  0  0  0  0
   -0.9691    0.0505   -1.4295 H   0  0  0  0  0  0  0  0  0  0  0  0
   -2.1511   -0.9590    0.0605 C   0  0  0  0  0  0  0  0  0  0  0  0
   -1.3859    1.2773    0.1736 O   0  0  0  0  0  0  0  0  0  0  0  0
    2.9393   -1.3204   -0.1306 H   0  0  0  0  0  0  0  0  0  0  0  0
    2.8766   -0.2371    1.2595 H   0  0  0  0  0  0  0  0  0  0  0  0
    3.6741    0.2810   -0.2270 H   0  0  0  0  0  0  0  0  0  0  0  0
    1.4517    1.3411   -0.0352 H   0  0  0  0  0  0  0  0  0  0  0  0
    1.4978    0.2499   -1.4243 H   0  0  0  0  0  0  0  0  0  0  0  0
    0.4333   -1.5377   -0.0322 H   0  0  0  0  0  0  0  0  0  0  0  0
    0.2985   -0.3964    1.3101 H   0  0  0  0  0  0  0  0  0  0  0  0
   -3.1009   -0.5693   -0.2952 H   0  0  0  0  0  0  0  0  0  0  0  0
   -1.9789   -1.9384   -0.3741 H   0  0  0  0  0  0  0  0  0  0  0  0
   -2.1983   -1.0456    1.1427 H   0  0  0  0  0  0  0  0  0  0  0  0
   -0.7029    1.9170   -0.0652 H   0  0  0  0  0  0  0  0  0  0  0  0
  1  2  1  0  0  0  0
  2  3  1  0  0  0  0
  3  4  1  0  0  0  0
  4  5  1  0  0  0  0
  4  6  1  0  0  0  0
  4  7  1  0  0  0  0
  1  8  1  0  0  0  0
  1  9  1  0  0  0  0
  1 10  1  0  0  0  0
  2 11  1  0  0  0  0
  2 12  1  0  0  0  0
  3 13  1  0  0  0  0
  3 14  1  0  0  0  0
  6 15  1  0  0  0  0
  6 16  1  0  0  0  0
  6 17  1  0  0  0  0
  7 18  1  0  0  0  0
M  END
