20
 xtb: 6.7.1 (edcfbbe)
C           -1.86480017535714       -1.21702978395596       -0.17034794992653
C           -1.20660895192582       -0.01714842972392        0.50539618348679
C           -0.13068168539883        0.67505164911516       -0.34399452519116
C            0.42516013372460        1.89210678910196        0.39846299151147
C            0.99049220046542       -0.27663197037079       -0.79811199116719
C            1.75166221790582       -0.96686869367132        0.33261980843598
H           -2.26549387730213       -0.94330561265858       -1.15351228300298
H           -1.15754641926764       -2.03988157067958       -0.31657717527238
H           -2.69467130437203       -1.60016172223866        0.43266325143858
H           -0.76955474429801       -0.32708125818212        1.46408921639865
H           -1.97590309355958        0.72668031687616        0.75028716373523
H           -0.62333581180828        1.03783899559923       -1.25860794446741
H            1.19666416725910        2.40045203132324       -0.19075780296615
H            0.86963678107934        1.60479994951219        1.35807443921407
H           -0.36945628447103        2.61637089622253        0.60941594351656
H            0.56642536507922       -1.04042295624744       -1.46121016537755
H            1.69819722918401        0.29764558577178       -1.40997824326150
H            1.09325789693017       -1.59740751538519        0.93926779323383
H            2.23081441472715       -0.24387983427566        1.00111047906767
H            2.53974302784908       -1.61026416290239       -0.07220992339232
