 xtb: 6.7.1 (edcfbbe)
          04112511243D

 18 17  0     0  0            999 V2000
    1.9607    0.3009    0.7117 C   0  0  0  0  0  0  0  0  0  0  0  0
    1.4063   -0.7292   -0.2646 C   0  0  0  0  0  0  0  0  0  0  0  0
    0.2560   -0.1955   -1.1201 C   0  0  0  0  0  0  0  0  0  0  0  0
   -1.0535    0.1272   -0.3837 C   0  0  0  0  0  0  0  0  0  0  0  0
   -1.8195    0.2929   -1.1625 H   0  0  0  0  0  0  0  0  0  0  0  0
   -1.5284   -1.0065    0.5255 C   0  0  0  0  0  0  0  0  0  0  0  0
   -0.8850    1.3378    0.3379 O   0  0  0  0  0  0  0  0  0  0  0  0
    2.3339    1.1689    0.1729 H   0  0  0  0  0  0  0  0  0  0  0  0
    2.7768   -0.1259    1.2905 H   0  0  0  0  0  0  0  0  0  0  0  0
    1.1869    0.6411    1.3932 H   0  0  0  0  0  0  0  0  0  0  0  0
    2.2061   -1.0390   -0.9419 H   0  0  0  0  0  0  0  0  0  0  0  0
    1.0807   -1.6159    0.2805 H   0  0  0  0  0  0  0  0  0  0  0  0
    0.5804    0.7213   -1.6170 H   0  0  0  0  0  0  0  0  0  0  0  0
    0.0221   -0.9334   -1.8900 H   0  0  0  0  0  0  0  0  0  0  0  0
   -0.8691   -1.1024    1.3838 H   0  0  0  0  0  0  0  0  0  0  0  0
   -2.5357   -0.8054    0.8841 H   0  0  0  0  0  0  0  0  0  0  0  0
   -1.5378   -1.9424   -0.0251 H   0  0  0  0  0  0  0  0  0  0  0  0
   -1.7117    1.5536    0.7891 H   0  0  0  0  0  0  0  0  0  0  0  0
  1  2  1  0  0  0  0
  2  3  1  0  0  0  0
  3  4  1  0  0  0  0
  4  5  1  0  0  0  0
  4  6  1  0  0  0  0
  4  7  1  0  0  0  0
  1  8  1  0  0  0  0
  1  9  1  0  0  0  0
  1 10  1  0  0  0  0
  2 11  1  0  0  0  0
  2 12  1  0  0  0  0
  3 13  1  0  0  0  0
  3 14  1  0  0  0  0
  6 15  1  0  0  0  0
  6 16  1  0  0  0  0
  6 17  1  0  0  0  0
  7 18  1  0  0  0  0
M  END
