 20

C      0.750000    -0.257000    -0.607000
C      0.843000     0.461000    -1.945000
C      0.830000     1.981000    -1.763000
C      0.922000     2.758000    -3.090000
C      2.223000     2.398000    -3.812000
C      0.847000     4.272000    -2.886000
H      0.760000    -1.344000    -0.743000
H      1.587000     0.016000     0.044000
H     -0.180000     0.012000    -0.096000
H      1.764000     0.154000    -2.454000
H      0.001000     0.144000    -2.569000
H     -0.079000     2.275000    -1.223000
H      1.678000     2.266000    -1.128000
H      0.086000     2.456000    -3.733000
H      2.306000     2.943000    -4.759000
H      2.273000     1.326000    -4.031000
H      3.093000     2.660000    -3.201000
H      0.915000     4.805000    -3.841000
H     -0.098000     4.553000    -2.409000
H      1.654000     4.628000    -2.239000
