23
 xtb: 6.7.1 (edcfbbe)
C            1.99610547500629        1.45220497684929       -0.41957297898388
C            1.61916467675700        0.19808013228210        0.36523287246831
C            0.42230177593271       -0.58285777828479       -0.20037813212259
H            0.70214373359200       -0.91358995440314       -1.21284606979887
C            0.18370616162102       -1.83653843337847        0.64561465839494
C           -0.84494493527009        0.28720676650723       -0.37131359333812
C           -1.98158489600148       -0.49035724075839       -1.04025849061683
C           -1.33186538852173        0.91714438633686        0.93504197070905
H            2.13419912030402        1.22359066638285       -1.48294034395395
H            1.23158104078252        2.23181690690331       -0.34285967973926
H            2.93417581591470        1.87668758329423       -0.04663462697727
H            1.41940038525588        0.46262562982746        1.41225680924323
H            2.48075775848005       -0.48166712654693        0.38593738655940
H           -0.59987333361457       -2.47487520381734        0.22645906692480
H            1.09988377980031       -2.43463064456907        0.70314285607356
H           -0.10296225304592       -1.57813916723912        1.67138175113214
H           -0.57382696160518        1.10479904568149       -1.05256834080314
H           -2.79508207556035        0.18574394945618       -1.32523112014078
H           -2.40343077756406       -1.24501013490246       -0.36720525397453
H           -1.63553554942604       -1.00140986679814       -1.94627117023872
H           -2.21072896314987        1.54440765751048        0.74891586369018
H           -0.56779248282091        1.54866115861178        1.39988607274305
H           -1.62422431923679        0.15060509865597        1.66163024381001
