  14
 
 C         -4.3625542105        0.5588336757        0.0023813103
 C         -3.2476861663       -0.4797873953       -0.0004351886
 C         -1.8692346098        0.1818518895        0.0001165706
 C         -0.7751854761       -0.8650174473       -0.0003628572
 I          1.1961299754        0.0265593238       -0.0004315784
 H         -5.3347609200        0.0723608519       -0.0002212844
 H         -4.2958718340        1.1888267835        0.8865217786
 H         -4.2942550219        1.1948883553       -0.8772719968
 H         -3.3443628306       -1.1158121284       -0.8837200465
 H         -3.3434123109       -1.1192086174        0.8804924999
 H         -1.7739696750        0.8194812747       -0.8820034914
 H         -1.7740959746        0.8184098414        0.8830303133
 H         -0.8215642547       -1.4911483978       -0.8881885716
 H         -0.8215941514       -1.4920577080        0.8868123649
          14
        -16.96858357
 C         -3.8533588678       -0.6966885785       -0.1511442001
 C         -2.4979642251       -0.2984394231        0.4181827263
 C         -1.8897292720        0.8741092258       -0.3460648710
 C         -0.5629858931        1.3346210845        0.2209478673
 I          1.0095525692       -0.1348045040       -0.0155062082
 H         -3.7577782906       -0.9908824420       -1.1941203162
 H         -4.2670163414       -1.5346373567        0.4042597455
 H         -4.5542456736        0.1337215229       -0.0921494800
 H         -1.8223219355       -1.1552518294        0.3671078023
 H         -2.6105030337       -0.0248534795        1.4705875375
 H         -1.7725416218        0.6032809604       -1.3981982741
 H         -2.5758405809        1.7264459370       -0.2998651734
 H         -0.6321502580        1.5261252188        1.2891061443
 H         -0.2037134880        2.2269363276       -0.2856026809
