 xtb: 6.7.1 (edcfbbe)
          04112512393D

 17 16  0     0  0            999 V2000
   -2.1528    1.0816   -0.6060 C   0  0  0  0  0  0  0  0  0  0  0  0
   -2.0842   -0.2667    0.1010 C   0  0  0  0  0  0  0  0  0  0  0  0
   -0.8276   -0.3845    0.9699 C   0  0  0  0  0  0  0  0  0  0  0  0
    0.4135   -0.4044    0.1166 C   0  0  0  0  0  0  0  0  0  0  0  0
    0.6130   -1.1613   -0.8103 O   0  0  0  0  0  0  0  0  0  0  0  0
    1.2886    0.5204    0.4978 O   0  0  0  0  0  0  0  0  0  0  0  0
    2.5203    0.6054   -0.2233 C   0  0  0  0  0  0  0  0  0  0  0  0
   -2.1403    1.8937    0.1169 H   0  0  0  0  0  0  0  0  0  0  0  0
   -1.3030    1.2033   -1.2752 H   0  0  0  0  0  0  0  0  0  0  0  0
   -3.0634    1.1549   -1.1944 H   0  0  0  0  0  0  0  0  0  0  0  0
   -2.0730   -1.0694   -0.6387 H   0  0  0  0  0  0  0  0  0  0  0  0
   -2.9626   -0.3939    0.7340 H   0  0  0  0  0  0  0  0  0  0  0  0
   -0.8579   -1.3241    1.5243 H   0  0  0  0  0  0  0  0  0  0  0  0
   -0.7551    0.4464    1.6705 H   0  0  0  0  0  0  0  0  0  0  0  0
    3.0584    1.4411    0.2124 H   0  0  0  0  0  0  0  0  0  0  0  0
    2.3218    0.7746   -1.2824 H   0  0  0  0  0  0  0  0  0  0  0  0
    3.0814   -0.3232   -0.1124 H   0  0  0  0  0  0  0  0  0  0  0  0
  1  2  1  0  0  0  0
  2  3  1  0  0  0  0
  3  4  1  0  0  0  0
  4  5  2  0  0  0  0
  4  6  1  0  0  0  0
  6  7  1  0  0  0  0
  1  8  1  0  0  0  0
  1  9  1  0  0  0  0
  1 10  1  0  0  0  0
  2 11  1  0  0  0  0
  2 12  1  0  0  0  0
  3 13  1  0  0  0  0
  3 14  1  0  0  0  0
  7 15  1  0  0  0  0
  7 16  1  0  0  0  0
  7 17  1  0  0  0  0
M  END
