 xtb: 6.7.1 (edcfbbe)
          04112510563D

 24 24  0     0  0            999 V2000
    2.1380    1.3220   -1.0414 C   0  0  0  0  0  0  0  0  0  0  0  0
    2.1734    0.8364    0.4027 C   0  0  0  0  0  0  0  0  0  0  0  0
    1.3848   -0.4648    0.6552 C   0  0  0  0  0  0  0  0  0  0  0  0
    1.4384   -0.6574    1.7342 H   0  0  0  0  0  0  0  0  0  0  0  0
    2.0189   -1.6613   -0.0519 C   0  0  0  0  0  0  0  0  0  0  0  0
   -0.0713   -0.2584    0.3130 C   0  0  0  0  0  0  0  0  0  0  0  0
   -0.9033    0.3396    1.2545 C   0  0  0  0  0  0  0  0  0  0  0  0
   -2.2359    0.5845    0.9789 C   0  0  0  0  0  0  0  0  0  0  0  0
   -2.7650    0.2324   -0.2514 C   0  0  0  0  0  0  0  0  0  0  0  0
   -1.9493   -0.3640   -1.1964 C   0  0  0  0  0  0  0  0  0  0  0  0
   -0.6147   -0.6060   -0.9173 C   0  0  0  0  0  0  0  0  0  0  0  0
    2.6653    2.2695   -1.1245 H   0  0  0  0  0  0  0  0  0  0  0  0
    2.6178    0.6106   -1.7080 H   0  0  0  0  0  0  0  0  0  0  0  0
    1.1119    1.4703   -1.3703 H   0  0  0  0  0  0  0  0  0  0  0  0
    3.2108    0.6758    0.7042 H   0  0  0  0  0  0  0  0  0  0  0  0
    1.7570    1.6173    1.0437 H   0  0  0  0  0  0  0  0  0  0  0  0
    1.4238   -2.5556    0.1181 H   0  0  0  0  0  0  0  0  0  0  0  0
    2.1016   -1.5002   -1.1223 H   0  0  0  0  0  0  0  0  0  0  0  0
    3.0183   -1.8314    0.3422 H   0  0  0  0  0  0  0  0  0  0  0  0
   -0.4991    0.6148    2.2188 H   0  0  0  0  0  0  0  0  0  0  0  0
   -2.8636    1.0490    1.7254 H   0  0  0  0  0  0  0  0  0  0  0  0
   -3.8056    0.4208   -0.4705 H   0  0  0  0  0  0  0  0  0  0  0  0
   -2.3530   -0.6422   -2.1591 H   0  0  0  0  0  0  0  0  0  0  0  0
    0.0007   -1.0709   -1.6710 H   0  0  0  0  0  0  0  0  0  0  0  0
  1  2  1  0  0  0  0
  2  3  1  0  0  0  0
  3  4  1  0  0  0  0
  3  5  1  0  0  0  0
  3  6  1  0  0  0  0
  6  7  4  0  0  0  0
  7  8  4  0  0  0  0
  8  9  4  0  0  0  0
  9 10  4  0  0  0  0
  6 11  4  0  0  0  0
 10 11  4  0  0  0  0
  1 12  1  0  0  0  0
  1 13  1  0  0  0  0
  1 14  1  0  0  0  0
  2 15  1  0  0  0  0
  2 16  1  0  0  0  0
  5 17  1  0  0  0  0
  5 18  1  0  0  0  0
  5 19  1  0  0  0  0
  7 20  1  0  0  0  0
  8 21  1  0  0  0  0
  9 22  1  0  0  0  0
 10 23  1  0  0  0  0
 11 24  1  0  0  0  0
M  END
