  34
 
 C         -6.7610999125       -0.2568285644        0.0027358124
 C         -5.4682678616        0.5492698444        0.0009568904
 C         -4.2364408163       -0.3524026305       -0.0109729650
 C         -2.9364720796        0.4476847004       -0.0150975757
 C         -1.7066691159       -0.4565619923       -0.0167638679
 C         -0.4054656480        0.3416759592       -0.0225909698
 C          0.8227319210       -0.5642059398        0.0093988775
 C          2.1208323520        0.2370695429        0.0044208197
 C          3.3499565392       -0.6646652089        0.0683323595
 C          4.6440265948        0.1178647172        0.1360162574
 O          4.6862906297        1.3075860403        0.3165020257
 C          5.8861012812       -0.7208743837       -0.0505395895
 H         -7.6255302436        0.4031298734        0.0091423088
 H         -6.8179063257       -0.8882890305       -0.8814736316
 H         -6.8106869218       -0.8959303761        0.8818876394
 H         -5.4378048723        1.1886750926        0.8863091733
 H         -5.4469228633        1.1998951780       -0.8764526950
 H         -4.2577401774       -1.0019992532        0.8676042749
 H         -4.2683485822       -0.9938636559       -0.8951684861
 H         -2.9118973544        1.0927293908       -0.8968012006
 H         -2.9076148442        1.0939613211        0.8655612262
 H         -1.7369744070       -1.1053296701       -0.8957310297
 H         -1.7312877171       -1.0990994852        0.8670042464
 H         -0.3689049960        0.9687540694       -0.9164069481
 H         -0.3849016869        1.0051539491        0.8450304542
 H          0.8023582667       -1.2306987718       -0.8568837287
 H          0.7846334441       -1.1884048875        0.9059926750
 H          2.1386017607        0.9175572247        0.8573411047
 H          2.1735269030        0.8479745699       -0.8987517879
 H          3.3018941334       -1.2935591044        0.9623079710
 H          3.3848570758       -1.3338056887       -0.7945763431
 H          6.0042923003       -0.9329409582       -1.1119247316
 H          5.8019487914       -1.6666576323        0.4778883805
 H          6.7613720546       -0.1757743083        0.2923365042
          34
        -38.84874348
 C         -6.7571623160       -0.2480390940        0.0527364794
 C         -5.4626341482        0.5452554894       -0.0765099560
 C         -4.2319705126       -0.3501574424        0.0444096558
 C         -2.9310743401        0.4392844811       -0.0782991144
 C         -1.7012056788       -0.4562127775        0.0489817180
 C         -0.4006769399        0.3350064049       -0.0678502343
 C          0.8292693645       -0.5601439818        0.0606757399
 C          2.1263377190        0.2345984500       -0.0565384478
 C          3.3571615725       -0.6593083774        0.0642209673
 C          4.6530929244        0.1225117025        0.0273127634
 O          4.7019744541        1.3224022022        0.1088892203
 C          5.8880280199       -0.7336651275       -0.1270899498
 H         -7.6199554534        0.4081625801       -0.0356903102
 H         -6.8201837576       -1.0048859744       -0.7262895185
 H         -6.8033313377       -0.7475173819        1.0181590704
 H         -5.4277456700        1.3118045986        0.7010857685
 H         -5.4440211646        1.0545472156       -1.0428109000
 H         -4.2533938571       -0.8625284133        1.0093599296
 H         -4.2652423604       -1.1150193836       -0.7353310167
 H         -2.9077423509        0.9490308317       -1.0444639085
 H         -2.9000773732        1.2065455149        0.6989779210
 H         -1.7300200961       -1.2215092215       -0.7305807670
 H         -1.7267842250       -0.9684331444        1.0139328303
 H         -0.3746578384        0.8470412697       -1.0324373057
 H         -0.3719018214        1.0999930879        0.7112832570
 H          0.8001578724       -1.3260143902       -0.7187906728
 H          0.8025401855       -1.0714780758        1.0263277065
 H          2.1659489946        0.9964381300        0.7237810536
 H          2.1553295672        0.7524057648       -1.0172857891
 H          3.3307155146       -1.1992343271        1.0155636937
 H          3.3713020765       -1.4080985960       -0.7309691482
 H          5.8255158800       -1.6223563342        0.4949205706
 H          6.7761646111       -0.1607626631        0.1254655790
 H          5.9632513614       -1.0501471108       -1.1662858236
