 34

C     -6.754000     2.619000     1.008000
C     -5.334000     3.065000     0.700000
C     -4.315000     1.988000     1.077000
C     -2.888000     2.444000     0.764000
C     -1.823000     1.403000     1.122000
C     -0.373000     1.802000     0.832000
C      0.645000     0.724000     1.210000
C      2.074000     1.178000     0.897000
C      3.115000     0.122000     1.264000
C      4.545000     0.540000     0.967000
O      4.835000     1.630000     0.476000
C      5.617000    -0.452000     1.339000
H     -7.477000     3.395000     0.735000
H     -7.007000     1.706000     0.459000
H     -6.864000     2.413000     2.078000
H     -5.120000     3.989000     1.250000
H     -5.254000     3.296000    -0.369000
H     -4.412000     1.763000     2.145000
H     -4.535000     1.065000     0.527000
H     -2.806000     2.655000    -0.310000
H     -2.678000     3.389000     1.278000
H     -2.050000     0.476000     0.581000
H     -1.907000     1.163000     2.189000
H     -0.261000     2.065000    -0.227000
H     -0.154000     2.716000     1.398000
H      0.426000    -0.200000     0.664000
H      0.558000     0.497000     2.279000
H      2.289000     2.089000     1.470000
H      2.158000     1.442000    -0.164000
H      3.059000    -0.078000     2.340000
H      2.905000    -0.813000     0.732000
H      5.808000    -1.119000     0.494000
H      5.287000    -1.049000     2.194000
H      6.530000     0.082000     1.613000
