  25
 
 C         -4.2063858642        0.3339496460       -0.0154196836
 C         -2.7269373918        0.0959708823       -0.0187372447
 C         -2.0424754112       -0.1197448080       -1.2081054634
 C         -0.6742369439       -0.3220809962       -1.2133411642
 C          0.0392277495       -0.3008322291       -0.0221516170
 C         -0.6389145860       -0.0940275314        1.1730707385
 C         -2.0072128861        0.1032519033        1.1703524975
 C          1.5089180109       -0.5967237949       -0.0185685722
 O          1.9251403589       -1.7405842791       -0.0349285623
 N          2.3334042663        0.4774819612        0.0047342923
 C          3.7628178515        0.2784154243        0.0386608696
 C          1.8978105642        1.8489781071        0.0093968129
 H         -4.4116231439        1.4052206087       -0.0167132353
 H         -4.6716773951       -0.1001098483       -0.8970026570
 H         -4.6649720975       -0.0935087658        0.8733975088
 H         -2.5874294714       -0.1358072156       -2.1411792325
 H         -0.1543147424       -0.5004956692       -2.1431415444
 H         -0.0921719381       -0.0938147655        2.1049677020
 H         -2.5260339849        0.2616010961        2.1051027792
 H          4.2328699266        0.7357846569       -0.8350032837
 H          3.9528579183       -0.7935022430        0.0350901264
 H          4.1871223546        0.7213239081        0.9435886263
 H          2.2198100992        2.3458392648        0.9296274374
 H          0.8145169347        1.9033468747       -0.0612371814
 H          2.3359887644        2.3820049811       -0.8393542137
          25
        -35.03756182
 C         -4.2205923879        0.3107652507        0.0706630296
 C         -2.7365474304        0.1116270860        0.0202361006
 C         -2.1277464039       -0.8860776771        0.7720088529
 C         -0.7621541395       -1.0903533978        0.7064872978
 C          0.0289877089       -0.2819614553       -0.1000984919
 C         -0.5745097208        0.7110960271       -0.8638528084
 C         -1.9423457132        0.9012405199       -0.8027654792
 C          1.4932810703       -0.5650487972       -0.2206162402
 O          1.8933506225       -1.6227935658       -0.6739664511
 N          2.3378956297        0.4158830844        0.1809751250
 C          3.7614282163        0.2342831274        0.0214004046
 C          1.9413584865        1.6358603635        0.8343928492
 H         -4.7032511558       -0.3105695612       -0.6844718726
 H         -4.6179457154        0.0272437862        1.0425122641
 H         -4.4812010478        1.3473409473       -0.1306717699
 H         -2.7319062327       -1.5144386149        1.4107064455
 H         -0.2984348553       -1.8770900985        1.2826551102
 H          0.0283109947        1.3285698954       -1.5141868162
 H         -2.4012524501        1.6740189369       -1.4031035347
 H          4.2584842717        0.2139919231        0.9944964274
 H          4.1804742687        1.0483050897       -0.5744432316
 H          3.9249317330       -0.7135679711       -0.4875801038
 H          0.8816429202        1.6135289903        1.0757426855
 H          2.1431572670        2.5002637827        0.1939721209
 H          2.5112397712        1.7558699751        1.7600553402
