 xtb: 6.7.1 (edcfbbe)
          04112511243D

 18 17  0     0  0            999 V2000
    2.2125   -0.8482    0.4681 C   0  0  0  0  0  0  0  0  0  0  0  0
    1.4436    0.4084    0.0715 C   0  0  0  0  0  0  0  0  0  0  0  0
    0.3466    0.1391   -0.9694 C   0  0  0  0  0  0  0  0  0  0  0  0
   -1.0805    0.0055   -0.4089 C   0  0  0  0  0  0  0  0  0  0  0  0
   -1.7415   -0.2644   -1.2420 H   0  0  0  0  0  0  0  0  0  0  0  0
   -1.2108   -1.0541    0.6841 C   0  0  0  0  0  0  0  0  0  0  0  0
   -1.5881    1.2570    0.0261 O   0  0  0  0  0  0  0  0  0  0  0  0
    2.7022   -1.2793   -0.4022 H   0  0  0  0  0  0  0  0  0  0  0  0
    1.5525   -1.5978    0.8944 H   0  0  0  0  0  0  0  0  0  0  0  0
    2.9766   -0.6050    1.2032 H   0  0  0  0  0  0  0  0  0  0  0  0
    1.0132    0.8648    0.9652 H   0  0  0  0  0  0  0  0  0  0  0  0
    2.1535    1.1279   -0.3412 H   0  0  0  0  0  0  0  0  0  0  0  0
    0.3188    0.9596   -1.6899 H   0  0  0  0  0  0  0  0  0  0  0  0
    0.5833   -0.7727   -1.5186 H   0  0  0  0  0  0  0  0  0  0  0  0
   -0.6020   -0.7982    1.5473 H   0  0  0  0  0  0  0  0  0  0  0  0
   -2.2485   -1.1190    1.0029 H   0  0  0  0  0  0  0  0  0  0  0  0
   -0.9005   -2.0213    0.3007 H   0  0  0  0  0  0  0  0  0  0  0  0
   -1.0491    1.5723    0.7650 H   0  0  0  0  0  0  0  0  0  0  0  0
  1  2  1  0  0  0  0
  2  3  1  0  0  0  0
  3  4  1  0  0  0  0
  4  5  1  0  0  0  0
  4  6  1  0  0  0  0
  4  7  1  0  0  0  0
  1  8  1  0  0  0  0
  1  9  1  0  0  0  0
  1 10  1  0  0  0  0
  2 11  1  0  0  0  0
  2 12  1  0  0  0  0
  3 13  1  0  0  0  0
  3 14  1  0  0  0  0
  6 15  1  0  0  0  0
  6 16  1  0  0  0  0
  6 17  1  0  0  0  0
  7 18  1  0  0  0  0
M  END
