 xtb: 6.7.1 (edcfbbe)
          04112512333D

 21 20  0     0  0            999 V2000
    1.7602   -0.8748    1.1965 C   0  0  0  0  0  0  0  0  0  0  0  0
    1.4878   -0.2577   -0.1695 C   0  0  0  0  0  0  0  0  0  0  0  0
    0.3060    0.7210   -0.2099 C   0  0  0  0  0  0  0  0  0  0  0  0
    0.4690    1.4930    0.5626 H   0  0  0  0  0  0  0  0  0  0  0  0
   -1.1048    0.1327    0.0072 C   0  0  0  0  0  0  0  0  0  0  0  0
   -1.3091   -1.1991   -0.7102 C   0  0  0  0  0  0  0  0  0  0  0  0
   -1.4897    0.0281    1.4809 C   0  0  0  0  0  0  0  0  0  0  0  0
    0.2544    1.3585   -1.4823 O   0  0  0  0  0  0  0  0  0  0  0  0
    1.0022   -1.6058    1.4602 H   0  0  0  0  0  0  0  0  0  0  0  0
    1.7845   -0.1057    1.9650 H   0  0  0  0  0  0  0  0  0  0  0  0
    2.7230   -1.3800    1.1843 H   0  0  0  0  0  0  0  0  0  0  0  0
    2.3762    0.3050   -0.4727 H   0  0  0  0  0  0  0  0  0  0  0  0
    1.3311   -1.0402   -0.9123 H   0  0  0  0  0  0  0  0  0  0  0  0
   -1.7731    0.8661   -0.4610 H   0  0  0  0  0  0  0  0  0  0  0  0
   -1.0103   -1.1112   -1.7519 H   0  0  0  0  0  0  0  0  0  0  0  0
   -0.7340   -1.9917   -0.2390 H   0  0  0  0  0  0  0  0  0  0  0  0
   -2.3603   -1.4751   -0.6771 H   0  0  0  0  0  0  0  0  0  0  0  0
   -0.9036   -0.7284    1.9924 H   0  0  0  0  0  0  0  0  0  0  0  0
   -2.5396   -0.2427    1.5624 H   0  0  0  0  0  0  0  0  0  0  0  0
   -1.3423    0.9800    1.9856 H   0  0  0  0  0  0  0  0  0  0  0  0
    1.1181    1.7415   -1.6861 H   0  0  0  0  0  0  0  0  0  0  0  0
  1  2  1  0  0  0  0
  2  3  1  0  0  0  0
  3  4  1  0  0  0  0
  3  5  1  0  0  0  0
  5  6  1  0  0  0  0
  5  7  1  0  0  0  0
  3  8  1  0  0  0  0
  1  9  1  0  0  0  0
  1 10  1  0  0  0  0
  1 11  1  0  0  0  0
  2 12  1  0  0  0  0
  2 13  1  0  0  0  0
  5 14  1  0  0  0  0
  6 15  1  0  0  0  0
  6 16  1  0  0  0  0
  6 17  1  0  0  0  0
  7 18  1  0  0  0  0
  7 19  1  0  0  0  0
  7 20  1  0  0  0  0
  8 21  1  0  0  0  0
M  END
