 xtb: 6.7.1 (edcfbbe)
          04112512193D

 17 16  0     0  0            999 V2000
   -2.3240    0.2393    1.1016 C   0  0  0  0  0  0  0  0  0  0  0  0
   -1.8090    0.5758   -0.3012 C   0  0  0  0  0  0  0  0  0  0  0  0
   -0.5289   -0.1782   -0.5522 C   0  0  0  0  0  0  0  0  0  0  0  0
   -0.4560   -1.2547   -1.1103 O   0  0  0  0  0  0  0  0  0  0  0  0
    0.5183    0.4607   -0.0541 O   0  0  0  0  0  0  0  0  0  0  0  0
    1.8139   -0.1559   -0.1493 C   0  0  0  0  0  0  0  0  0  0  0  0
    2.6745    0.3511    0.9929 C   0  0  0  0  0  0  0  0  0  0  0  0
   -1.6020    0.5499    1.8521 H   0  0  0  0  0  0  0  0  0  0  0  0
   -3.2620    0.7558    1.2807 H   0  0  0  0  0  0  0  0  0  0  0  0
   -2.4899   -0.8313    1.1952 H   0  0  0  0  0  0  0  0  0  0  0  0
   -1.6094    1.6437   -0.3755 H   0  0  0  0  0  0  0  0  0  0  0  0
   -2.5395    0.2745   -1.0510 H   0  0  0  0  0  0  0  0  0  0  0  0
    1.6850   -1.2426   -0.1161 H   0  0  0  0  0  0  0  0  0  0  0  0
    2.2415    0.1148   -1.1197 H   0  0  0  0  0  0  0  0  0  0  0  0
    2.7445    1.4340    0.9502 H   0  0  0  0  0  0  0  0  0  0  0  0
    2.2415    0.0648    1.9471 H   0  0  0  0  0  0  0  0  0  0  0  0
    3.6682   -0.0767    0.9098 H   0  0  0  0  0  0  0  0  0  0  0  0
  1  2  1  0  0  0  0
  2  3  1  0  0  0  0
  3  4  2  0  0  0  0
  3  5  1  0  0  0  0
  5  6  1  0  0  0  0
  6  7  1  0  0  0  0
  1  8  1  0  0  0  0
  1  9  1  0  0  0  0
  1 10  1  0  0  0  0
  2 11  1  0  0  0  0
  2 12  1  0  0  0  0
  6 13  1  0  0  0  0
  6 14  1  0  0  0  0
  7 15  1  0  0  0  0
  7 16  1  0  0  0  0
  7 17  1  0  0  0  0
M  END
