 xtb: 6.7.1 (edcfbbe)
          04112511573D

 25 25  0     0  0            999 V2000
    3.0429    0.3619    1.1220 C   0  0  0  0  0  0  0  0  0  0  0  0
    1.9781   -0.4238    0.4075 C   0  0  0  0  0  0  0  0  0  0  0  0
    1.6924   -1.6566    0.7946 C   0  0  0  0  0  0  0  0  0  0  0  0
    1.3775    0.2709   -0.7963 C   0  0  0  0  0  0  0  0  0  0  0  0
    2.2234    0.4891   -1.4614 H   0  0  0  0  0  0  0  0  0  0  0  0
    0.3652   -0.5458   -1.6078 C   0  0  0  0  0  0  0  0  0  0  0  0
   -0.9649   -0.7829   -0.8904 C   0  0  0  0  0  0  0  0  0  0  0  0
   -1.3925    0.3753   -0.0400 C   0  0  0  0  0  0  0  0  0  0  0  0
   -0.6185    1.4505    0.1697 C   0  0  0  0  0  0  0  0  0  0  0  0
    0.7290    1.6167   -0.4282 C   0  0  0  0  0  0  0  0  0  0  0  0
   -2.7003    0.2935    0.5806 C   0  0  0  0  0  0  0  0  0  0  0  0
   -3.4841   -0.6323    0.4648 O   0  0  0  0  0  0  0  0  0  0  0  0
    3.7635    0.7591    0.4091 H   0  0  0  0  0  0  0  0  0  0  0  0
    2.6158    1.1978    1.6727 H   0  0  0  0  0  0  0  0  0  0  0  0
    3.5685   -0.2702    1.8324 H   0  0  0  0  0  0  0  0  0  0  0  0
    0.9692   -2.2841    0.3092 H   0  0  0  0  0  0  0  0  0  0  0  0
    2.1923   -2.1013    1.6396 H   0  0  0  0  0  0  0  0  0  0  0  0
    0.1662    0.0083   -2.5273 H   0  0  0  0  0  0  0  0  0  0  0  0
    0.8036   -1.5029   -1.8913 H   0  0  0  0  0  0  0  0  0  0  0  0
   -1.7520   -0.9809   -1.6233 H   0  0  0  0  0  0  0  0  0  0  0  0
   -0.9273   -1.6655   -0.2477 H   0  0  0  0  0  0  0  0  0  0  0  0
   -0.9885    2.2599    0.7848 H   0  0  0  0  0  0  0  0  0  0  0  0
    0.6145    2.2137   -1.3390 H   0  0  0  0  0  0  0  0  0  0  0  0
    1.3646    2.1933    0.2423 H   0  0  0  0  0  0  0  0  0  0  0  0
   -2.9718    1.1664    1.2047 H   0  0  0  0  0  0  0  0  0  0  0  0
  1  2  1  0  0  0  0
  2  3  2  0  0  0  0
  2  4  1  0  0  0  0
  4  5  1  0  0  0  0
  4  6  1  0  0  0  0
  6  7  1  0  0  0  0
  7  8  1  0  0  0  0
  8  9  2  0  0  0  0
  4 10  1  0  0  0  0
  9 10  1  0  0  0  0
  8 11  1  0  0  0  0
 11 12  2  0  0  0  0
  1 13  1  0  0  0  0
  1 14  1  0  0  0  0
  1 15  1  0  0  0  0
  3 16  1  0  0  0  0
  3 17  1  0  0  0  0
  6 18  1  0  0  0  0
  6 19  1  0  0  0  0
  7 20  1  0  0  0  0
  7 21  1  0  0  0  0
  9 22  1  0  0  0  0
 10 23  1  0  0  0  0
 10 24  1  0  0  0  0
 11 25  1  0  0  0  0
M  END
