  10
 
 C         -1.8274861990       -0.8519231139       -0.4901571738
 S         -0.9025513897        0.4051264754        0.4600675355
 S          0.9021176426        0.4055393994       -0.4631921157
 C          1.8254817944       -0.8492161460        0.4913927058
 H         -2.8205349192       -0.8910295477       -0.0561361953
 H         -1.3380489954       -1.8162499326       -0.3942681966
 H         -1.8798039273       -0.5470418746       -1.5302512184
 H          2.8183361382       -0.8901575551        0.0573282751
 H          1.3357600124       -1.8136977388        0.3985508869
 H          1.8782016297       -0.5410924607        1.5304429488
          10
        -13.83749886
 C         -1.8366324972       -0.8393786095        0.4617793489
 S         -0.8959494351        0.4154440363       -0.4738544565
 S          0.8959876124        0.4155759528        0.4737781395
 C          1.8365512507       -0.8395654441       -0.4616177936
 H         -1.8543159701       -0.5637686154        1.5109323648
 H         -1.3834556399       -1.8163931327        0.3257078120
 H         -2.8403970906       -0.8325025391        0.0517054808
 H          1.3841273851       -1.8167487030       -0.3240902887
 H          2.8408421029       -0.8316940770       -0.0525934513
 H          1.8529530432       -0.5648318380       -1.5111596045
