  10
 
 C          0.8110000000       -0.6600000000        0.3190000000
 S          0.2410000000       -1.6600000000        1.7150000000
 S          1.8940000000       -2.8210000000        2.1000000000
 C          1.5890000000       -4.2570000000        1.0430000000
 H          0.0180000000        0.0210000000        0.0010000000
 H          1.0810000000       -1.3090000000       -0.5170000000
 H          1.6860000000       -0.0750000000        0.6150000000
 H          2.4070000000       -4.9720000000        1.1500000000
 H          1.5240000000       -3.9380000000        0.0020000000
 H          0.6520000000       -4.7340000000        1.3350000000
