17
 xtb: 6.7.1 (edcfbbe)
C           -3.14612663257650        0.52014917189168        0.18077565312376
C           -1.74818683539730       -0.04688779571864        0.39801302276999
C           -0.76223864056007        0.47457667913849       -0.66441705032926
C            0.59347971841423       -0.12697833967231       -0.45220143462773
O            0.96526625836051       -1.19437249166407       -0.91399803511762
O            1.35887710844471        0.62214816399438        0.36721130339300
C            2.66188100021377        0.07260345315174        0.69303937779409
H           -3.84021567821955        0.14728860513131        0.94027116059136
H           -3.13865993647928        1.61389469114795        0.23717267207528
H           -3.53600127626315        0.23564427526715       -0.80240098186437
H           -1.77526621261092       -1.14169350559071        0.35344520504639
H           -1.38121348805014        0.22756999329652        1.39359066811273
H           -0.70087791313468        1.56508981973302       -0.60870675640160
H           -1.10794610465789        0.18562888016827       -1.66092963653551
H            3.11617956035802        0.79221958292119        1.37314981401661
H            3.26464504122052       -0.02874088733981       -0.21257678031700
H            2.55109030654600       -0.89767422874708        1.18273534817054
