  10
 
 C          1.4716034054       -0.5869634695        0.0010002310
 C          0.6847940206        0.7159887690        0.0002378164
 C         -0.8000671241        0.4974527351        0.0002034217
 O         -1.3537368481       -0.5641848045        0.0001891900
 H          2.5404344184       -0.3897151745        0.0018719508
 H          1.2224710095       -1.1748216834       -0.8786582548
 H          1.2209921647       -1.1746058188        0.8803605300
 H          0.9282118596        1.3213363165        0.8781759682
 H          0.9286386021        1.3206860809       -0.8780325997
 H         -1.3795652167        1.4443172184       -0.0023983143
          10
        -13.52030232
 C          1.8192606935       -0.2652964737        0.1493293518
 C          0.5718418988        0.5690643142       -0.1217224936
 C         -0.6595507690       -0.2798755119       -0.2395385416
 O         -1.7412531971       -0.0034348879        0.1947874561
 H          2.6991206520        0.3720046811        0.1796767541
 H          1.9601100813       -1.0099712466       -0.6311164884
 H          1.7339350699       -0.7781348655        1.1043815969
 H          0.4213753106        1.3208975228        0.6546161757
 H          0.6832974988        1.0898953604       -1.0782066150
 H         -0.4918484819       -1.2248875169       -0.7958470847
