 xtb: 6.7.1 (edcfbbe)
          04112510483D

 27 27  0     0  0            999 V2000
   -3.0157   -0.6746    2.0550 C   0  0  0  0  0  0  0  0  0  0  0  0
   -3.0021   -1.4637    0.7504 C   0  0  0  0  0  0  0  0  0  0  0  0
   -2.7258   -0.5736   -0.4644 C   0  0  0  0  0  0  0  0  0  0  0  0
   -3.4886    0.2110   -0.5061 H   0  0  0  0  0  0  0  0  0  0  0  0
   -2.7425   -1.3561   -1.7735 C   0  0  0  0  0  0  0  0  0  0  0  0
   -1.4536    0.1568   -0.3098 N   0  0  0  0  0  0  0  0  0  0  0  0
   -0.2622   -0.5581   -0.2111 C   0  0  0  0  0  0  0  0  0  0  0  0
   -0.2293   -1.7742   -0.2664 O   0  0  0  0  0  0  0  0  0  0  0  0
    0.9191    0.2618   -0.0385 C   0  0  0  0  0  0  0  0  0  0  0  0
    0.8780    1.6164    0.0186 C   0  0  0  0  0  0  0  0  0  0  0  0
   -0.3479    2.2005   -0.0906 N   0  0  0  0  0  0  0  0  0  0  0  0
   -1.5332    1.5285   -0.2487 C   0  0  0  0  0  0  0  0  0  0  0  0
   -2.5800    2.1478   -0.3299 O   0  0  0  0  0  0  0  0  0  0  0  0
    2.0547    2.5008    0.2052 C   0  0  0  0  0  0  0  0  0  0  0  0
    2.5529   -0.6972    0.1139 Br  0  0  0  0  0  0  0  0  0  0  0  0
   -3.3341   -1.3123    2.8747 H   0  0  0  0  0  0  0  0  0  0  0  0
   -2.0232   -0.2930    2.2900 H   0  0  0  0  0  0  0  0  0  0  0  0
   -3.6986    0.1696    1.9833 H   0  0  0  0  0  0  0  0  0  0  0  0
   -2.2541   -2.2557    0.8000 H   0  0  0  0  0  0  0  0  0  0  0  0
   -3.9764   -1.9273    0.5951 H   0  0  0  0  0  0  0  0  0  0  0  0
   -3.7256   -1.7945   -1.9131 H   0  0  0  0  0  0  0  0  0  0  0  0
   -2.5327   -0.6950   -2.6112 H   0  0  0  0  0  0  0  0  0  0  0  0
   -2.0024   -2.1514   -1.7539 H   0  0  0  0  0  0  0  0  0  0  0  0
   -0.4266    3.2118   -0.0445 H   0  0  0  0  0  0  0  0  0  0  0  0
    1.8349    3.5120   -0.1206 H   0  0  0  0  0  0  0  0  0  0  0  0
    2.9092    2.1152   -0.3459 H   0  0  0  0  0  0  0  0  0  0  0  0
    2.3327    2.5237    1.2585 H   0  0  0  0  0  0  0  0  0  0  0  0
  1  2  1  0  0  0  0
  2  3  1  0  0  0  0
  3  4  1  0  0  0  0
  3  5  1  0  0  0  0
  3  6  1  0  0  0  0
  6  7  1  0  0  0  0
  7  8  2  0  0  0  0
  7  9  1  0  0  0  0
  9 10  2  0  0  0  0
 10 11  1  0  0  0  0
  6 12  1  0  0  0  0
 11 12  1  0  0  0  0
 12 13  2  0  0  0  0
 10 14  1  0  0  0  0
  9 15  1  0  0  0  0
  1 16  1  0  0  0  0
  1 17  1  0  0  0  0
  1 18  1  0  0  0  0
  2 19  1  0  0  0  0
  2 20  1  0  0  0  0
  5 21  1  0  0  0  0
  5 22  1  0  0  0  0
  5 23  1  0  0  0  0
 11 24  1  0  0  0  0
 14 25  1  0  0  0  0
 14 26  1  0  0  0  0
 14 27  1  0  0  0  0
M  END
