 11

C      1.652000    -0.623000     2.900000
C      1.388000    -0.068000     1.652000
C      0.227000    -0.420000     0.973000
C     -0.632000    -1.322000     1.580000
N     -0.409000    -1.882000     2.791000
C      0.730000    -1.516000     3.421000
Cl    -0.132000     0.243000    -0.567000
H      2.551000    -0.364000     3.447000
H      2.095000     0.635000     1.221000
H     -1.554000    -1.637000     1.102000
H      0.889000    -1.976000     4.390000
