  19
 
 C          2.3918699117        0.0003218307       -0.0101491068
 N          0.9793102222        0.0009916585        0.2976840976
 C          0.3174248652        1.1864527386       -0.2168347952
 C         -1.1444791501        1.1880505336        0.2198524123
 N         -1.7871409092       -0.0005280717       -0.3079310630
 C         -1.1442081308       -1.1873533959        0.2234855052
 C          0.3178720160       -1.1865266003       -0.2126236022
 H          2.8509861973        0.8883233812        0.4227119671
 H          2.5928954208       -0.0061170171       -1.0935976063
 H          2.8523621714       -0.8815666573        0.4335672300
 H          0.8216265457        2.0691052275        0.1842136359
 H          0.3606992932        1.2250661560       -1.3198385758
 H         -1.1801698119        1.2263743106        1.3225698778
 H         -1.6491107629        2.0703406410       -0.1801970077
 H         -2.7751358924       -0.0002815118       -0.0750008463
 H         -1.1804437481       -1.2226345898        1.3262983912
 H         -1.6483333191       -2.0709308215       -0.1743713068
 H          0.8223873272       -2.0675223144        0.1916430529
 H          0.3615667736       -1.2290080482       -1.3154896645
          19
        -22.67009838
 C          2.3977416888       -0.0001010466        0.0091643516
 N          0.9839028809       -0.0000911405       -0.2897558087
 C          0.3226569809        1.1914175644        0.2114357481
 C         -1.1452093479        1.1858770449       -0.2289206949
 N         -1.8542544544       -0.0000300084        0.2132256789
 C         -1.1452006231       -1.1857934862       -0.2293327570
 C          0.3223539120       -1.1913157460        0.2118407379
 H          2.8544712506        0.8845460317       -0.4326313068
 H          2.8540332587       -0.8858643992       -0.4308339170
 H          2.6063830692        0.0008613678        1.0919243135
 H          0.3754398478        1.2477296698        1.3174677585
 H          0.8297874868        2.0680590172       -0.1983479953
 H         -1.6572585175        2.0693391219        0.1583176532
 H         -1.1878168843        1.2029973112       -1.3210246555
 H         -1.9048974320       -0.0002943588        1.2299772506
 H         -1.6576506198       -2.0694353645        0.1569486063
 H         -1.1870677158       -1.2020771778       -1.3214782658
 H          0.3745627563       -1.2469645835        1.3179554654
 H          0.8296556154       -2.0682179927       -0.1971370153
