 19

C     -0.186000    -2.044000     4.077000
N     -0.422000    -2.120000     2.636000
C     -0.074000    -0.852000     1.982000
C     -0.312000    -0.938000     0.473000
N      0.434000    -2.044000    -0.132000
C      0.090000    -3.304000     0.532000
C      0.330000    -3.232000     2.042000
H     -0.751000    -1.213000     4.507000
H      0.877000    -1.887000     4.277000
H     -0.501000    -2.972000     4.561000
H     -0.695000    -0.043000     2.385000
H      0.975000    -0.588000     2.176000
H     -1.384000    -1.051000     0.264000
H      0.006000     0.000000     0.005000
H      0.206000    -2.107000    -1.123000
H     -0.957000    -3.561000     0.325000
H      0.706000    -4.104000     0.107000
H      0.008000    -4.180000     2.489000
H      1.406000    -3.125000     2.239000
