 xtb: 6.7.1 (edcfbbe)
          04112512163D

 23 23  0     0  0            999 V2000
   -0.2773    2.4548   -0.0437 C   0  0  0  0  0  0  0  0  0  0  0  0
   -0.1171    1.1402   -0.6341 N   0  0  0  0  0  0  0  0  0  0  0  0
   -1.3408    0.4431   -0.9076 C   0  0  0  0  0  0  0  0  0  0  0  0
   -1.9717   -0.2067    0.3314 C   0  0  0  0  0  0  0  0  0  0  0  0
   -3.0734   -0.9167    0.0094 F   0  0  0  0  0  0  0  0  0  0  0  0
   -1.1497   -1.0599    0.9647 F   0  0  0  0  0  0  0  0  0  0  0  0
   -2.3677    0.6841    1.2591 F   0  0  0  0  0  0  0  0  0  0  0  0
    1.0423    0.4122   -0.3563 C   0  0  0  0  0  0  0  0  0  0  0  0
    1.3096   -0.7959   -1.0088 C   0  0  0  0  0  0  0  0  0  0  0  0
    2.4848   -1.4832   -0.7805 C   0  0  0  0  0  0  0  0  0  0  0  0
    3.4342   -0.9917    0.0992 C   0  0  0  0  0  0  0  0  0  0  0  0
    3.1847    0.2034    0.7484 C   0  0  0  0  0  0  0  0  0  0  0  0
    2.0086    0.8967    0.5293 C   0  0  0  0  0  0  0  0  0  0  0  0
    0.6095    3.0478   -0.2566 H   0  0  0  0  0  0  0  0  0  0  0  0
   -0.4422    2.4254    1.0389 H   0  0  0  0  0  0  0  0  0  0  0  0
   -1.1318    2.9412   -0.5094 H   0  0  0  0  0  0  0  0  0  0  0  0
   -2.0817    1.1402   -1.3075 H   0  0  0  0  0  0  0  0  0  0  0  0
   -1.1900   -0.3581   -1.6327 H   0  0  0  0  0  0  0  0  0  0  0  0
    0.6074   -1.2125   -1.7129 H   0  0  0  0  0  0  0  0  0  0  0  0
    2.6602   -2.4137   -1.2999 H   0  0  0  0  0  0  0  0  0  0  0  0
    4.3507   -1.5329    0.2759 H   0  0  0  0  0  0  0  0  0  0  0  0
    3.9093    0.6031    1.4425 H   0  0  0  0  0  0  0  0  0  0  0  0
    1.8480    1.8142    1.0695 H   0  0  0  0  0  0  0  0  0  0  0  0
  1  2  1  0  0  0  0
  2  3  1  0  0  0  0
  3  4  1  0  0  0  0
  4  5  1  0  0  0  0
  4  6  1  0  0  0  0
  4  7  1  0  0  0  0
  2  8  1  0  0  0  0
  8  9  4  0  0  0  0
  9 10  4  0  0  0  0
 10 11  4  0  0  0  0
 11 12  4  0  0  0  0
  8 13  4  0  0  0  0
 12 13  4  0  0  0  0
  1 14  1  0  0  0  0
  1 15  1  0  0  0  0
  1 16  1  0  0  0  0
  3 17  1  0  0  0  0
  3 18  1  0  0  0  0
  9 19  1  0  0  0  0
 10 20  1  0  0  0  0
 11 21  1  0  0  0  0
 12 22  1  0  0  0  0
 13 23  1  0  0  0  0
M  END
