 xtb: 6.7.1 (edcfbbe)
          04112511443D

 25 25  0     0  0            999 V2000
    3.6424    0.6290   -0.4665 C   0  0  0  0  0  0  0  0  0  0  0  0
    2.5278   -0.0994    0.2181 C   0  0  0  0  0  0  0  0  0  0  0  0
    2.7289   -0.8620    1.2813 C   0  0  0  0  0  0  0  0  0  0  0  0
    1.1506    0.1174   -0.3744 C   0  0  0  0  0  0  0  0  0  0  0  0
    1.2718    0.6339   -1.3303 H   0  0  0  0  0  0  0  0  0  0  0  0
    0.3929   -1.2016   -0.6353 C   0  0  0  0  0  0  0  0  0  0  0  0
   -0.8994   -1.3311    0.1838 C   0  0  0  0  0  0  0  0  0  0  0  0
   -1.7162   -0.0881    0.0131 C   0  0  0  0  0  0  0  0  0  0  0  0
   -1.0832    1.0871    0.1853 C   0  0  0  0  0  0  0  0  0  0  0  0
    0.3516    1.0725    0.5494 C   0  0  0  0  0  0  0  0  0  0  0  0
   -3.1150   -0.1582   -0.3520 C   0  0  0  0  0  0  0  0  0  0  0  0
   -3.8606    0.7942   -0.5063 O   0  0  0  0  0  0  0  0  0  0  0  0
    3.4354    1.6979   -0.4880 H   0  0  0  0  0  0  0  0  0  0  0  0
    4.5884    0.4650    0.0416 H   0  0  0  0  0  0  0  0  0  0  0  0
    3.7339    0.2879   -1.4969 H   0  0  0  0  0  0  0  0  0  0  0  0
    1.9278   -1.3842    1.7758 H   0  0  0  0  0  0  0  0  0  0  0  0
    3.7105   -1.0009    1.7006 H   0  0  0  0  0  0  0  0  0  0  0  0
    0.1260   -1.2545   -1.6919 H   0  0  0  0  0  0  0  0  0  0  0  0
    1.0410   -2.0500   -0.4167 H   0  0  0  0  0  0  0  0  0  0  0  0
   -1.4546   -2.2137   -0.1340 H   0  0  0  0  0  0  0  0  0  0  0  0
   -0.6460   -1.4497    1.2400 H   0  0  0  0  0  0  0  0  0  0  0  0
   -1.6102    2.0203    0.0546 H   0  0  0  0  0  0  0  0  0  0  0  0
    0.7861    2.0702    0.5139 H   0  0  0  0  0  0  0  0  0  0  0  0
    0.4434    0.6987    1.5735 H   0  0  0  0  0  0  0  0  0  0  0  0
   -3.5061   -1.1842   -0.4909 H   0  0  0  0  0  0  0  0  0  0  0  0
  1  2  1  0  0  0  0
  2  3  2  0  0  0  0
  2  4  1  0  0  0  0
  4  5  1  0  0  0  0
  4  6  1  0  0  0  0
  6  7  1  0  0  0  0
  7  8  1  0  0  0  0
  8  9  2  0  0  0  0
  4 10  1  0  0  0  0
  9 10  1  0  0  0  0
  8 11  1  0  0  0  0
 11 12  2  0  0  0  0
  1 13  1  0  0  0  0
  1 14  1  0  0  0  0
  1 15  1  0  0  0  0
  3 16  1  0  0  0  0
  3 17  1  0  0  0  0
  6 18  1  0  0  0  0
  6 19  1  0  0  0  0
  7 20  1  0  0  0  0
  7 21  1  0  0  0  0
  9 22  1  0  0  0  0
 10 23  1  0  0  0  0
 10 24  1  0  0  0  0
 11 25  1  0  0  0  0
M  END
