24
CONF1
C 2.0471531305 1.9175899986 -0.4070889829
C 2.3023405611 0.4163447381 -0.4842209294
C 1.4458314201 -0.4016303985 0.4980789292
H 1.6511062652 -0.0261773706 1.5094236364
C 1.8335313088 -1.8836846392 0.4485824157
C -0.0343063747 -0.2085724990 0.2425688900
C -0.8576704611 0.3750532921 1.2088918081
C -2.2191756284 0.5638476628 0.9755331942
C -2.7809094840 0.1712913579 -0.2360012072
C -1.9704089398 -0.4113873892 -1.2096973053
C -0.6120935603 -0.5991357230 -0.9717035417
H 2.2350504930 2.2952433117 0.6046331291
H 2.6997118534 2.4639767072 -1.0956509028
H 1.0106571145 2.1594963526 -0.6664989350
H 2.1169544366 0.0559218507 -1.5045687284
H 3.3578217202 0.2100399039 -0.2667936545
H 2.8916065033 -2.0093916377 0.7019642750
H 1.2404324391 -2.4725856681 1.1555376992
H 1.6764264252 -2.2971983718 -0.5535791118
H -0.4247207852 0.6869020774 2.1559887683
H -2.8399578726 1.0194419282 1.7412989015
H -3.8403154312 0.3176918196 -0.4220103709
H -2.3991126455 -0.7198727886 -2.1586502400
H 0.0065164437 -1.0518773729 -1.7416504686
24
CONF2
C 3.4413201670 1.1504181081 -0.2962623996
C 1.9517574656 0.9332317136 -0.5478957470
C 1.2873653175 -0.0405824202 0.4442005313
H 1.4566739312 0.3505368242 1.4564141894
C 1.8962817584 -1.4459642887 0.3705449547
C -0.2097285646 -0.0804866371 0.2227041444
C -1.0906494172 0.3865659339 1.2021822383
C -2.4698876261 0.3619851142 1.0003003894
C -2.9928625696 -0.1312025819 -0.1919413832
C -2.1254812407 -0.5996735817 -1.1779828381
C -0.7490874178 -0.5750952898 -0.9714838940
H 3.8368411398 1.9227474524 -0.9637492902
H 3.6216570358 1.4754225210 0.7349523961
H 4.0220363632 0.2391717907 -0.4681853774
H 1.4300330160 1.8964801233 -0.4842830473
H 1.7983578875 0.5605516687 -1.5691484329
H 1.8182756222 -1.8562667089 -0.6424773589
H 2.9541821736 -1.4319022276 0.6486185179
H 1.3800484059 -2.1274545839 1.0543815267
H -0.6893393353 0.7738176231 2.1353114520
H -3.1352834214 0.7285612774 1.7763486506
H -4.0662586095 -0.1517654248 -0.3527239844
H -2.5231051229 -0.9864447131 -2.1117114502
H -0.0876398686 -0.9458071833 -1.7494752628
24
CONF3
C 2.1887063378 1.3401289393 -1.0299372860
C 2.1743799097 0.8430750825 0.4124715308
C 1.3823203412 -0.4664985021 0.6451611291
H 1.4340011984 -0.6642286359 1.7238573024
C 2.0249907762 -1.6547467055 -0.0705089818
C -0.0834520542 -0.2676562078 0.3145092337
C -0.9160314568 0.3505492792 1.2559381451
C -2.2580557767 0.5961160421 0.9821241402
C -2.7993542005 0.2262214762 -0.2481892428
C -1.9850672222 -0.3917245445 -1.1931219467
C -0.6408089078 -0.6361879247 -0.9139362857
H 2.7752705181 2.2609376028 -1.1101175266
H 2.6336827636 0.6066941852 -1.7098165969
H 1.1772252996 1.5592661070 -1.3880383541
H 3.2042037022 0.6773901787 0.7537847510
H 1.7497944115 1.6215817873 1.0583121728
H 1.4700257762 -2.5779082534 0.1254677274
H 2.0722592143 -1.5175586218 -1.1544831186
H 3.0502743507 -1.7926878103 0.2883054916
H -0.5021479468 0.6387345078 2.2194631998
H -2.8840919547 1.0715436426 1.7314790571
H -3.8464058702 0.4137111979 -0.4649860033
H -2.3958199726 -0.6865978958 -2.1543237140
H -0.0260421350 -1.1192072612 -1.6666582274
