  17
 
 C          5.3389604197       -0.0494565160        0.0038861319
 C          3.9624541100        0.6033139713        0.0066127220
 C          2.8450769858       -0.4378216326        0.0078026959
 C          1.4627098980        0.2145614043        0.0012875070
 C          0.3765909680       -0.8406255262        0.0009174839
 I         -1.6050542293        0.0298298945       -0.0039173791
 H          6.1196392407        0.7071130426       -0.0065756527
 H          5.4711929785       -0.6668258700        0.8898028433
 H          5.4606893608       -0.6804874218       -0.8739728817
 H          3.8606101134        1.2406113542       -0.8746490926
 H          3.8636181500        1.2398932710        0.8886999630
 H          2.9436112354       -1.0721300807        0.8924775830
 H          2.9485563118       -1.0787404067       -0.8715577641
 H          1.3588068795        0.8538762029        0.8811950446
 H          1.3646142316        0.8483107436       -0.8833282400
 H          0.4285663072       -1.4661159531        0.8887269887
 H          0.4309062770       -1.4678079168       -0.8855330447
          17
        -20.13300810
 C          4.3850499893        1.0635811287        0.1874677065
 C          3.5637962515       -0.0883616754       -0.3778689015
 C          2.1894868019       -0.1759098848        0.2806878437
 C          1.3544299308       -1.3183773241       -0.2897215775
 C          0.0011112064       -1.4588122249        0.3759452351
 I         -1.3099777954        0.2170546926       -0.0227485847
 H          3.8746351052        2.0104892255        0.0261966704
 H          4.5378566865        0.9353576717        1.2569901608
 H          5.3584504008        1.1117501864       -0.2946391725
 H          4.1005218721       -1.0278804172       -0.2241256457
 H          3.4394060371        0.0492884292       -1.4544477189
 H          1.6636449750        0.7698901913        0.1299166720
 H          2.3132067683       -0.3195610124        1.3575643114
 H          1.2280033576       -1.1781072868       -1.3660463872
 H          1.8886171718       -2.2629024341       -0.1416758822
 H          0.0941744863       -1.5124347439        1.4579787749
 H         -0.5303113245       -2.3350928917        0.0131101996
