  17
 
 C          2.1530000000       -1.3780000000       -1.4510000000
 C          1.2420000000       -0.2590000000       -0.9720000000
 C          0.4440000000       -0.6150000000        0.2840000000
 C         -0.4710000000        0.5160000000        0.7620000000
 C         -1.2420000000        0.1040000000        2.0170000000
 I         -2.5160000000        1.6900000000        2.6750000000
 H          2.7070000000       -1.0890000000       -2.3490000000
 H          2.8860000000       -1.6230000000       -0.6750000000
 H          1.5800000000       -2.2840000000       -1.6730000000
 H          0.5590000000        0.0270000000       -1.7810000000
 H          1.8590000000        0.6220000000       -0.7530000000
 H          1.1550000000       -0.8620000000        1.0820000000
 H         -0.1490000000       -1.5180000000        0.0980000000
 H          0.1310000000        1.4090000000        0.9680000000
 H         -1.1790000000        0.7810000000       -0.0320000000
 H         -0.5420000000       -0.1550000000        2.8200000000
 H         -1.8470000000       -0.7860000000        1.8110000000
