 14

C      0.775000     0.212000    -0.746000
C      0.564000     1.579000    -1.399000
C     -0.810000     1.643000    -2.070000
C      1.669000     1.860000    -2.417000
Cl     0.633000     2.839000    -0.119000
H      1.755000     0.147000    -0.259000
H      0.011000     0.008000     0.013000
H      0.723000    -0.590000    -1.490000
H     -0.979000     2.617000    -2.544000
H     -0.915000     0.872000    -2.841000
H     -1.611000     1.488000    -1.338000
H      1.534000     2.837000    -2.896000
H      1.690000     1.100000    -3.207000
H      2.654000     1.862000    -1.936000
