 xtb: 6.7.1 (edcfbbe)
          04112511463D

 21 21  0     0  0            999 V2000
   -2.9276    1.4360   -0.0039 C   0  0  0  0  0  0  0  0  0  0  0  0
   -2.5853    0.0613    0.0026 O   0  0  0  0  0  0  0  0  0  0  0  0
   -1.2775   -0.3376    0.0013 C   0  0  0  0  0  0  0  0  0  0  0  0
   -1.1017   -1.7238   -0.0001 C   0  0  0  0  0  0  0  0  0  0  0  0
    0.1547   -2.2839   -0.0012 C   0  0  0  0  0  0  0  0  0  0  0  0
    1.2826   -1.4777   -0.0014 C   0  0  0  0  0  0  0  0  0  0  0  0
    1.1269   -0.1040    0.0000 C   0  0  0  0  0  0  0  0  0  0  0  0
   -0.1505    0.4842    0.0016 C   0  0  0  0  0  0  0  0  0  0  0  0
   -0.2398    1.8533    0.0037 O   0  0  0  0  0  0  0  0  0  0  0  0
    2.1566    0.8105    0.0003 O   0  0  0  0  0  0  0  0  0  0  0  0
    3.4847    0.3265   -0.0023 C   0  0  0  0  0  0  0  0  0  0  0  0
   -2.5504    1.9446    0.8846 H   0  0  0  0  0  0  0  0  0  0  0  0
   -4.0158    1.4500   -0.0051 H   0  0  0  0  0  0  0  0  0  0  0  0
   -2.5486    1.9363   -0.8964 H   0  0  0  0  0  0  0  0  0  0  0  0
   -1.9904   -2.3331   -0.0001 H   0  0  0  0  0  0  0  0  0  0  0  0
    0.2655   -3.3559   -0.0022 H   0  0  0  0  0  0  0  0  0  0  0  0
    2.2622   -1.9242   -0.0025 H   0  0  0  0  0  0  0  0  0  0  0  0
    0.6630    2.2118    0.0029 H   0  0  0  0  0  0  0  0  0  0  0  0
    4.1119    1.2151   -0.0023 H   0  0  0  0  0  0  0  0  0  0  0  0
    3.6851   -0.2668   -0.8976 H   0  0  0  0  0  0  0  0  0  0  0  0
    3.6879   -0.2686    0.8912 H   0  0  0  0  0  0  0  0  0  0  0  0
  1  2  1  0  0  0  0
  2  3  1  0  0  0  0
  3  4  4  0  0  0  0
  4  5  4  0  0  0  0
  5  6  4  0  0  0  0
  6  7  4  0  0  0  0
  3  8  4  0  0  0  0
  7  8  4  0  0  0  0
  8  9  1  0  0  0  0
  7 10  1  0  0  0  0
 10 11  1  0  0  0  0
  1 12  1  0  0  0  0
  1 13  1  0  0  0  0
  1 14  1  0  0  0  0
  4 15  1  0  0  0  0
  5 16  1  0  0  0  0
  6 17  1  0  0  0  0
  9 18  1  0  0  0  0
 11 19  1  0  0  0  0
 11 20  1  0  0  0  0
 11 21  1  0  0  0  0
M  END
