16
 xtb: 6.7.1 (edcfbbe)
C           -1.81278162041995        0.38747273676767        0.60876800079297
C           -1.04314564105106        0.14795602474487       -0.68033309557245
N           -0.02458818700099       -0.91356876840666       -0.54805524882171
C            1.05036731917157       -0.58503053921699        0.40894346081780
C            1.78800175830086        0.73019121003751        0.16714477109980
H           -1.17872754727929        0.81291013945986        1.39320660595152
H           -2.62799945644216        1.09503135282824        0.42691795865736
H           -2.24926839300322       -0.54274357938020        0.98910801164991
H           -0.61449658988162        1.10405859092319       -1.02332642342580
H           -1.74330719738581       -0.17256046707987       -1.46016124032808
H            0.41912459813371       -0.99839858152356       -1.45940578278091
H            0.63026291192199       -0.58991858661430        1.42130921579491
H            1.77137417864458       -1.40978257196148        0.37591913140751
H            2.63526574799702        0.81666457036942        0.85623217141955
H            2.17961470873219        0.77569922793940       -0.85603564916160
H            1.14378439426128        1.60073050147387        0.32587759112380
