 xtb: 6.7.1 (edcfbbe)
          04112510483D

 27 27  0     0  0            999 V2000
   -3.5286   -0.5810   -1.8074 C   0  0  0  0  0  0  0  0  0  0  0  0
   -3.0087   -1.5915   -0.7925 C   0  0  0  0  0  0  0  0  0  0  0  0
   -2.4898   -0.9974    0.5260 C   0  0  0  0  0  0  0  0  0  0  0  0
   -2.0271   -1.8231    1.0813 H   0  0  0  0  0  0  0  0  0  0  0  0
   -3.5806   -0.4031    1.4064 C   0  0  0  0  0  0  0  0  0  0  0  0
   -1.3650   -0.0726    0.2798 N   0  0  0  0  0  0  0  0  0  0  0  0
   -0.1014   -0.6721    0.2737 C   0  0  0  0  0  0  0  0  0  0  0  0
    0.0287   -1.8729    0.4479 O   0  0  0  0  0  0  0  0  0  0  0  0
    1.0046    0.2286    0.0593 C   0  0  0  0  0  0  0  0  0  0  0  0
    0.8384    1.5598   -0.1493 C   0  0  0  0  0  0  0  0  0  0  0  0
   -0.4388    2.0232   -0.1559 N   0  0  0  0  0  0  0  0  0  0  0  0
   -1.5742    1.2616    0.0249 C   0  0  0  0  0  0  0  0  0  0  0  0
   -2.6618    1.7994   -0.0452 O   0  0  0  0  0  0  0  0  0  0  0  0
    1.9411    2.5245   -0.3827 C   0  0  0  0  0  0  0  0  0  0  0  0
    2.7303   -0.5674    0.0706 Br  0  0  0  0  0  0  0  0  0  0  0  0
   -4.2954    0.0532   -1.3731 H   0  0  0  0  0  0  0  0  0  0  0  0
   -2.7273    0.0589   -2.1715 H   0  0  0  0  0  0  0  0  0  0  0  0
   -3.9536   -1.1071   -2.6582 H   0  0  0  0  0  0  0  0  0  0  0  0
   -3.8066   -2.2884   -0.5345 H   0  0  0  0  0  0  0  0  0  0  0  0
   -2.1970   -2.1691   -1.2431 H   0  0  0  0  0  0  0  0  0  0  0  0
   -4.1414    0.3704    0.8942 H   0  0  0  0  0  0  0  0  0  0  0  0
   -4.2568   -1.2025    1.6948 H   0  0  0  0  0  0  0  0  0  0  0  0
   -3.1455    0.0254    2.3062 H   0  0  0  0  0  0  0  0  0  0  0  0
   -0.6129    3.0081   -0.3327 H   0  0  0  0  0  0  0  0  0  0  0  0
    2.3690    2.3613   -1.3712 H   0  0  0  0  0  0  0  0  0  0  0  0
    2.7387    2.3637    0.3396 H   0  0  0  0  0  0  0  0  0  0  0  0
    1.5861    3.5472   -0.3141 H   0  0  0  0  0  0  0  0  0  0  0  0
  1  2  1  0  0  0  0
  2  3  1  0  0  0  0
  3  4  1  0  0  0  0
  3  5  1  0  0  0  0
  3  6  1  0  0  0  0
  6  7  1  0  0  0  0
  7  8  2  0  0  0  0
  7  9  1  0  0  0  0
  9 10  2  0  0  0  0
 10 11  4  0  0  0  0
  6 12  1  0  0  0  0
 11 12  1  0  0  0  0
 12 13  2  0  0  0  0
 10 14  1  0  0  0  0
  9 15  1  0  0  0  0
  1 16  1  0  0  0  0
  1 17  1  0  0  0  0
  1 18  1  0  0  0  0
  2 19  1  0  0  0  0
  2 20  1  0  0  0  0
  5 21  1  0  0  0  0
  5 22  1  0  0  0  0
  5 23  1  0  0  0  0
 11 24  1  0  0  0  0
 14 25  1  0  0  0  0
 14 26  1  0  0  0  0
 14 27  1  0  0  0  0
M  END
