 xtb: 6.7.1 (edcfbbe)
          04112512143D

 21 20  0     0  0            999 V2000
    2.7089   -0.3897    0.2450 C   0  0  0  0  0  0  0  0  0  0  0  0
    1.3704   -0.6130   -0.4495 C   0  0  0  0  0  0  0  0  0  0  0  0
    0.2465    0.1895    0.2144 C   0  0  0  0  0  0  0  0  0  0  0  0
    0.2639   -0.0031    1.2992 H   0  0  0  0  0  0  0  0  0  0  0  0
   -1.1471   -0.2022   -0.3299 C   0  0  0  0  0  0  0  0  0  0  0  0
   -1.5647   -1.5808    0.1783 C   0  0  0  0  0  0  0  0  0  0  0  0
   -2.2069    0.8261    0.0715 C   0  0  0  0  0  0  0  0  0  0  0  0
    0.5461    1.5572   -0.0214 O   0  0  0  0  0  0  0  0  0  0  0  0
    3.4990   -0.9232   -0.2766 H   0  0  0  0  0  0  0  0  0  0  0  0
    2.6687   -0.7450    1.2724 H   0  0  0  0  0  0  0  0  0  0  0  0
    2.9488    0.6704    0.2527 H   0  0  0  0  0  0  0  0  0  0  0  0
    1.4403   -0.2863   -1.4885 H   0  0  0  0  0  0  0  0  0  0  0  0
    1.1235   -1.6733   -0.4344 H   0  0  0  0  0  0  0  0  0  0  0  0
   -1.0842   -0.2243   -1.4231 H   0  0  0  0  0  0  0  0  0  0  0  0
   -2.5512   -1.8320   -0.2031 H   0  0  0  0  0  0  0  0  0  0  0  0
   -0.8730   -2.3539   -0.1428 H   0  0  0  0  0  0  0  0  0  0  0  0
   -1.6055   -1.5847    1.2655 H   0  0  0  0  0  0  0  0  0  0  0  0
   -2.2446    0.9317    1.1544 H   0  0  0  0  0  0  0  0  0  0  0  0
   -3.1850    0.4993   -0.2722 H   0  0  0  0  0  0  0  0  0  0  0  0
   -2.0006    1.7938   -0.3784 H   0  0  0  0  0  0  0  0  0  0  0  0
   -0.0044    2.1067    0.5499 H   0  0  0  0  0  0  0  0  0  0  0  0
  1  2  1  0  0  0  0
  2  3  1  0  0  0  0
  3  4  1  0  0  0  0
  3  5  1  0  0  0  0
  5  6  1  0  0  0  0
  5  7  1  0  0  0  0
  3  8  1  0  0  0  0
  1  9  1  0  0  0  0
  1 10  1  0  0  0  0
  1 11  1  0  0  0  0
  2 12  1  0  0  0  0
  2 13  1  0  0  0  0
  5 14  1  0  0  0  0
  6 15  1  0  0  0  0
  6 16  1  0  0  0  0
  6 17  1  0  0  0  0
  7 18  1  0  0  0  0
  7 19  1  0  0  0  0
  7 20  1  0  0  0  0
  8 21  1  0  0  0  0
M  END
