 xtb: 6.7.1 (edcfbbe)
          04112511193D

 20 19  0     0  0            999 V2000
   -1.8946   -1.1949   -0.1776 C   0  0  0  0  0  0  0  0  0  0  0  0
   -1.1925   -0.0355    0.5206 C   0  0  0  0  0  0  0  0  0  0  0  0
   -0.1308    0.6539   -0.3447 C   0  0  0  0  0  0  0  0  0  0  0  0
    0.4169    1.8786    0.3889 C   0  0  0  0  0  0  0  0  0  0  0  0
    1.0024   -0.2829   -0.7903 C   0  0  0  0  0  0  0  0  0  0  0  0
    1.7727   -0.9529    0.3427 C   0  0  0  0  0  0  0  0  0  0  0  0
   -2.3092   -0.8707   -1.1299 H   0  0  0  0  0  0  0  0  0  0  0  0
   -1.2080   -2.0166   -0.3630 H   0  0  0  0  0  0  0  0  0  0  0  0
   -2.7079   -1.5673    0.4411 H   0  0  0  0  0  0  0  0  0  0  0  0
   -0.7366   -0.3883    1.4471 H   0  0  0  0  0  0  0  0  0  0  0  0
   -1.9409    0.7129    0.7932 H   0  0  0  0  0  0  0  0  0  0  0  0
   -0.6250    1.0055   -1.2594 H   0  0  0  0  0  0  0  0  0  0  0  0
    1.1905    2.3644   -0.2013 H   0  0  0  0  0  0  0  0  0  0  0  0
    0.8397    1.5969    1.3499 H   0  0  0  0  0  0  0  0  0  0  0  0
   -0.3788    2.5979    0.5691 H   0  0  0  0  0  0  0  0  0  0  0  0
    0.5872   -1.0552   -1.4404 H   0  0  0  0  0  0  0  0  0  0  0  0
    1.7027    0.3012   -1.3929 H   0  0  0  0  0  0  0  0  0  0  0  0
    1.1253   -1.5997    0.9286 H   0  0  0  0  0  0  0  0  0  0  0  0
    2.2168   -0.2139    1.0039 H   0  0  0  0  0  0  0  0  0  0  0  0
    2.5741   -1.5624   -0.0694 H   0  0  0  0  0  0  0  0  0  0  0  0
  1  2  1  0  0  0  0
  2  3  1  0  0  0  0
  3  4  1  0  0  0  0
  3  5  1  0  0  0  0
  5  6  1  0  0  0  0
  1  7  1  0  0  0  0
  1  8  1  0  0  0  0
  1  9  1  0  0  0  0
  2 10  1  0  0  0  0
  2 11  1  0  0  0  0
  3 12  1  0  0  0  0
  4 13  1  0  0  0  0
  4 14  1  0  0  0  0
  4 15  1  0  0  0  0
  5 16  1  0  0  0  0
  5 17  1  0  0  0  0
  6 18  1  0  0  0  0
  6 19  1  0  0  0  0
  6 20  1  0  0  0  0
M  END
