 xtb: 6.7.1 (edcfbbe)
          04112512443D

 20 19  0     0  0            999 V2000
   -2.4151   -0.6858   -0.9430 C   0  0  0  0  0  0  0  0  0  0  0  0
   -1.8431    0.2569    0.1131 C   0  0  0  0  0  0  0  0  0  0  0  0
   -1.4934   -0.5020    1.3915 C   0  0  0  0  0  0  0  0  0  0  0  0
   -0.6173    0.9979   -0.4338 C   0  0  0  0  0  0  0  0  0  0  0  0
    0.4413    0.0866   -0.7521 O   0  0  0  0  0  0  0  0  0  0  0  0
    1.5463    0.0951   -0.0180 C   0  0  0  0  0  0  0  0  0  0  0  0
    1.7405    0.8584    0.9067 O   0  0  0  0  0  0  0  0  0  0  0  0
    2.5181   -0.9510   -0.4783 C   0  0  0  0  0  0  0  0  0  0  0  0
   -3.2762   -1.2161   -0.5460 H   0  0  0  0  0  0  0  0  0  0  0  0
   -1.6637   -1.4131   -1.2400 H   0  0  0  0  0  0  0  0  0  0  0  0
   -2.7253   -0.1295   -1.8236 H   0  0  0  0  0  0  0  0  0  0  0  0
   -2.5859    1.0248    0.3506 H   0  0  0  0  0  0  0  0  0  0  0  0
   -1.0299    0.1617    2.1188 H   0  0  0  0  0  0  0  0  0  0  0  0
   -0.7978   -1.3105    1.1748 H   0  0  0  0  0  0  0  0  0  0  0  0
   -2.3892   -0.9303    1.8325 H   0  0  0  0  0  0  0  0  0  0  0  0
   -0.8644    1.5085   -1.3672 H   0  0  0  0  0  0  0  0  0  0  0  0
   -0.2441    1.7213    0.2980 H   0  0  0  0  0  0  0  0  0  0  0  0
    2.2052   -1.3536   -1.4354 H   0  0  0  0  0  0  0  0  0  0  0  0
    2.5501   -1.7452    0.2644 H   0  0  0  0  0  0  0  0  0  0  0  0
    3.5108   -0.5151   -0.5443 H   0  0  0  0  0  0  0  0  0  0  0  0
  1  2  1  0  0  0  0
  2  3  1  0  0  0  0
  2  4  1  0  0  0  0
  4  5  1  0  0  0  0
  5  6  1  0  0  0  0
  6  7  2  0  0  0  0
  6  8  1  0  0  0  0
  1  9  1  0  0  0  0
  1 10  1  0  0  0  0
  1 11  1  0  0  0  0
  2 12  1  0  0  0  0
  3 13  1  0  0  0  0
  3 14  1  0  0  0  0
  3 15  1  0  0  0  0
  4 16  1  0  0  0  0
  4 17  1  0  0  0  0
  8 18  1  0  0  0  0
  8 19  1  0  0  0  0
  8 20  1  0  0  0  0
M  END
