 20

C     -0.510000     0.907000     0.341000
C     -0.574000     0.957000     1.859000
C      0.824000     0.959000     2.478000
C      0.756000     1.009000     4.003000
C      2.131000     1.011000     4.632000
O      3.188000     0.977000     4.017000
O      1.996000     1.055000     5.990000
C      3.220000     1.061000     6.732000
H     -1.514000     0.907000    -0.094000
H      0.036000     1.768000    -0.057000
H      0.003000    -0.002000     0.013000
H     -1.119000     1.857000     2.167000
H     -1.141000     0.093000     2.223000
H      1.393000     1.820000     2.105000
H      1.369000     0.061000     2.162000
H      0.211000     0.135000     4.378000
H      0.234000     1.919000     4.320000
H      2.985000     1.097000     7.794000
H      3.804000     1.929000     6.436000
H      3.762000     0.147000     6.500000
