17
 xtb: 6.7.1 (edcfbbe)
C           -2.12788944701300        0.93763363913357       -0.73544618677142
C           -2.07920197993911       -0.29554151262009        0.16136572029938
C           -0.83336776650752       -0.31221796040269        1.05763465839969
C            0.42120102292818       -0.36819738316195        0.23340487878828
O            0.65855395225087       -1.22151650027645       -0.60690415310015
O            1.27149678560507        0.63924273620904        0.51246443822364
C            2.50538130400894        0.65260854464397       -0.25279679739313
H           -3.04152186851487        0.95106010873444       -1.33750583959408
H           -2.10082759187837        1.85667590778097       -0.13955548743918
H           -1.27582243585346        0.96039811189147       -1.42550996597132
H           -2.09684355748390       -1.20663682872637       -0.44693366029648
H           -2.96162738368890       -0.32544220457105        0.80902415576084
H           -0.83806347586729       -1.20793146799549        1.69012689482950
H           -0.81232151436806        0.56570107527791        1.70816102377709
H            3.05421469840172        1.52577138778861        0.09980565997401
H            2.28501797074620        0.74531657798093       -1.31935309384603
H            3.07657722028024       -0.25976555376715       -0.06377732032540
