 xtb: 6.7.1 (edcfbbe)
          04112512393D

 17 16  0     0  0            999 V2000
   -2.2533    0.3719   -0.9247 C   0  0  0  0  0  0  0  0  0  0  0  0
   -2.1199   -0.3654    0.4024 C   0  0  0  0  0  0  0  0  0  0  0  0
   -0.8409    0.0340    1.1422 C   0  0  0  0  0  0  0  0  0  0  0  0
    0.3879   -0.4482    0.4162 C   0  0  0  0  0  0  0  0  0  0  0  0
    0.5335   -1.5541   -0.0601 O   0  0  0  0  0  0  0  0  0  0  0  0
    1.3272    0.4916    0.3664 O   0  0  0  0  0  0  0  0  0  0  0  0
    2.5645    0.1613   -0.2698 C   0  0  0  0  0  0  0  0  0  0  0  0
   -3.1766    0.0901   -1.4236 H   0  0  0  0  0  0  0  0  0  0  0  0
   -2.2591    1.4477   -0.7663 H   0  0  0  0  0  0  0  0  0  0  0  0
   -1.4211    0.1237   -1.5807 H   0  0  0  0  0  0  0  0  0  0  0  0
   -2.0967   -1.4417    0.2221 H   0  0  0  0  0  0  0  0  0  0  0  0
   -2.9788   -0.1400    1.0349 H   0  0  0  0  0  0  0  0  0  0  0  0
   -0.8309   -0.4314    2.1300 H   0  0  0  0  0  0  0  0  0  0  0  0
   -0.7715    1.1148    1.2610 H   0  0  0  0  0  0  0  0  0  0  0  0
    2.9689   -0.7584    0.1546 H   0  0  0  0  0  0  0  0  0  0  0  0
    3.2242    1.0028   -0.0841 H   0  0  0  0  0  0  0  0  0  0  0  0
    2.4054    0.0186   -1.3392 H   0  0  0  0  0  0  0  0  0  0  0  0
  1  2  1  0  0  0  0
  2  3  1  0  0  0  0
  3  4  1  0  0  0  0
  4  5  2  0  0  0  0
  4  6  1  0  0  0  0
  6  7  1  0  0  0  0
  1  8  1  0  0  0  0
  1  9  1  0  0  0  0
  1 10  1  0  0  0  0
  2 11  1  0  0  0  0
  2 12  1  0  0  0  0
  3 13  1  0  0  0  0
  3 14  1  0  0  0  0
  7 15  1  0  0  0  0
  7 16  1  0  0  0  0
  7 17  1  0  0  0  0
M  END
