 xtb: 6.7.1 (edcfbbe)
          04112512413D

 21 20  0     0  0            999 V2000
    1.7339   -0.5457    1.1413 C   0  0  0  0  0  0  0  0  0  0  0  0
    1.1730    0.4795    0.1582 C   0  0  0  0  0  0  0  0  0  0  0  0
    0.8378    1.3696    0.7133 H   0  0  0  0  0  0  0  0  0  0  0  0
    0.0105   -0.0725   -0.6734 C   0  0  0  0  0  0  0  0  0  0  0  0
   -1.2333   -0.5053    0.1077 C   0  0  0  0  0  0  0  0  0  0  0  0
   -1.8507    0.6509    0.8916 C   0  0  0  0  0  0  0  0  0  0  0  0
   -2.2612   -1.0785   -0.8678 C   0  0  0  0  0  0  0  0  0  0  0  0
    2.1611    0.8818   -0.7832 O   0  0  0  0  0  0  0  0  0  0  0  0
    2.0394   -1.4425    0.6076 H   0  0  0  0  0  0  0  0  0  0  0  0
    2.5972   -0.1374    1.6626 H   0  0  0  0  0  0  0  0  0  0  0  0
    0.9831   -0.8088    1.8794 H   0  0  0  0  0  0  0  0  0  0  0  0
   -0.2664    0.7008   -1.3941 H   0  0  0  0  0  0  0  0  0  0  0  0
    0.3942   -0.9221   -1.2430 H   0  0  0  0  0  0  0  0  0  0  0  0
   -0.9544   -1.2970    0.8102 H   0  0  0  0  0  0  0  0  0  0  0  0
   -2.7822    0.3334    1.3544 H   0  0  0  0  0  0  0  0  0  0  0  0
   -2.0641    1.4855    0.2275 H   0  0  0  0  0  0  0  0  0  0  0  0
   -1.1836    0.9955    1.6770 H   0  0  0  0  0  0  0  0  0  0  0  0
   -2.5740   -0.3162   -1.5779 H   0  0  0  0  0  0  0  0  0  0  0  0
   -1.8400   -1.9125   -1.4239 H   0  0  0  0  0  0  0  0  0  0  0  0
   -3.1394   -1.4308   -0.3323 H   0  0  0  0  0  0  0  0  0  0  0  0
    2.9442    1.1922   -0.3091 H   0  0  0  0  0  0  0  0  0  0  0  0
  1  2  1  0  0  0  0
  2  3  1  0  0  0  0
  2  4  1  0  0  0  0
  4  5  1  0  0  0  0
  5  6  1  0  0  0  0
  5  7  1  0  0  0  0
  2  8  1  0  0  0  0
  1  9  1  0  0  0  0
  1 10  1  0  0  0  0
  1 11  1  0  0  0  0
  4 12  1  0  0  0  0
  4 13  1  0  0  0  0
  5 14  1  0  0  0  0
  6 15  1  0  0  0  0
  6 16  1  0  0  0  0
  6 17  1  0  0  0  0
  7 18  1  0  0  0  0
  7 19  1  0  0  0  0
  7 20  1  0  0  0  0
  8 21  1  0  0  0  0
M  END
