 xtb: 6.7.1 (edcfbbe)
          04112512403D

 18 17  0     0  0            999 V2000
   -1.7984    1.4424    0.3147 C   0  0  0  0  0  0  0  0  0  0  0  0
   -1.1393    0.3363   -0.5011 C   0  0  0  0  0  0  0  0  0  0  0  0
   -0.2497   -0.5883    0.3388 C   0  0  0  0  0  0  0  0  0  0  0  0
   -0.7687   -0.8307    1.2722 H   0  0  0  0  0  0  0  0  0  0  0  0
    0.0310   -1.8896   -0.4147 C   0  0  0  0  0  0  0  0  0  0  0  0
    1.0635    0.1072    0.7345 C   0  0  0  0  0  0  0  0  0  0  0  0
    1.8358    0.5481   -0.3611 O   0  0  0  0  0  0  0  0  0  0  0  0
   -1.0534    2.1085    0.7419 H   0  0  0  0  0  0  0  0  0  0  0  0
   -2.4557    2.0331   -0.3187 H   0  0  0  0  0  0  0  0  0  0  0  0
   -2.3892    1.0198    1.1246 H   0  0  0  0  0  0  0  0  0  0  0  0
   -0.5309    0.7825   -1.2908 H   0  0  0  0  0  0  0  0  0  0  0  0
   -1.9186   -0.2639   -0.9752 H   0  0  0  0  0  0  0  0  0  0  0  0
    0.7264   -2.5143    0.1419 H   0  0  0  0  0  0  0  0  0  0  0  0
    0.4475   -1.6832   -1.3981 H   0  0  0  0  0  0  0  0  0  0  0  0
   -0.8918   -2.4470   -0.5538 H   0  0  0  0  0  0  0  0  0  0  0  0
    1.6564   -0.5690    1.3663 H   0  0  0  0  0  0  0  0  0  0  0  0
    0.8494    1.0076    1.3140 H   0  0  0  0  0  0  0  0  0  0  0  0
    2.1158   -0.2233   -0.8721 H   0  0  0  0  0  0  0  0  0  0  0  0
  1  2  1  0  0  0  0
  2  3  1  0  0  0  0
  3  4  1  0  0  0  0
  3  5  1  0  0  0  0
  3  6  1  0  0  0  0
  6  7  1  0  0  0  0
  1  8  1  0  0  0  0
  1  9  1  0  0  0  0
  1 10  1  0  0  0  0
  2 11  1  0  0  0  0
  2 12  1  0  0  0  0
  5 13  1  0  0  0  0
  5 14  1  0  0  0  0
  5 15  1  0  0  0  0
  6 16  1  0  0  0  0
  6 17  1  0  0  0  0
  7 18  1  0  0  0  0
M  END
