 27

C      0.789000     0.796000    -0.349000
O      0.705000     1.884000     0.567000
C     -0.585000     2.542000     0.646000
C     -0.924000     3.096000    -0.744000
C     -0.083000     4.032000    -1.346000
C     -0.392000     4.536000    -2.609000
C     -1.542000     4.105000    -3.270000
C     -2.383000     3.169000    -2.668000
C     -2.074000     2.665000    -1.405000
O     -1.607000     1.633000     1.103000
C     -1.367000     1.082000     2.394000
O     -0.433000     3.662000     1.554000
C     -1.603000     4.445000     1.769000
H      1.798000     0.378000    -0.328000
H      0.549000     1.147000    -1.356000
H      0.071000     0.027000    -0.053000
H      0.815000     4.374000    -0.838000
H      0.264000     5.264000    -3.078000
H     -1.782000     4.497000    -4.254000
H     -3.279000     2.834000    -3.183000
H     -2.736000     1.936000    -0.944000
H     -2.187000     0.412000     2.654000
H     -1.292000     1.892000     3.119000
H     -0.431000     0.525000     2.365000
H     -1.370000     5.252000     2.463000
H     -2.389000     3.808000     2.175000
H     -1.923000     4.862000     0.814000
