  8
 
 C          0.1600327680        0.3762197064       -0.5628709364
 H          0.1836520809        0.3572614349       -1.6547163265
 C          1.2683339640       -0.5213426791       -0.0148935178
 F          2.4677567873       -0.1020194595       -0.4309064785
 F          1.2952899358       -0.5586817815        1.3123081973
 F          1.1258508069       -1.7762145847       -0.4513265112
 Cl         0.4229454924        2.0389119595        0.0038095754
 Br        -1.5492016252       -0.3324670183        0.0051165451
           8
        -27.61168263
 C          0.1715968151        0.3807301916       -0.5626183333
 H          0.1939697537        0.3652700892       -1.6544829072
 C          1.2340958595       -0.5725086152       -0.0189241390
 F          1.0325942671       -1.8162581306       -0.4642219687
 F          2.4534357429       -0.2089181143       -0.4291707624
 F          1.2562178892       -0.6206768319        1.3081454627
 Cl         0.5151272086        2.0260311839        0.0117366730
 Br        -1.5698488717       -0.2456274222        0.0044643746
