 xtb: 6.7.1 (edcfbbe)
          04112512423D

 17 16  0     0  0            999 V2000
   -2.2633    0.2889    1.0987 C   0  0  0  0  0  0  0  0  0  0  0  0
   -1.8309    0.4154   -0.3654 C   0  0  0  0  0  0  0  0  0  0  0  0
   -0.4517   -0.1704   -0.5216 C   0  0  0  0  0  0  0  0  0  0  0  0
   -0.2193   -1.3246   -0.8167 O   0  0  0  0  0  0  0  0  0  0  0  0
    0.4891    0.7306   -0.2718 O   0  0  0  0  0  0  0  0  0  0  0  0
    1.8647    0.3153   -0.3032 C   0  0  0  0  0  0  0  0  0  0  0  0
    2.3074   -0.2113    1.0534 C   0  0  0  0  0  0  0  0  0  0  0  0
   -2.2604   -0.7550    1.4033 H   0  0  0  0  0  0  0  0  0  0  0  0
   -1.5847    0.8437    1.7414 H   0  0  0  0  0  0  0  0  0  0  0  0
   -3.2663    0.6863    1.2201 H   0  0  0  0  0  0  0  0  0  0  0  0
   -1.8041    1.4645   -0.6555 H   0  0  0  0  0  0  0  0  0  0  0  0
   -2.5166   -0.1378   -1.0060 H   0  0  0  0  0  0  0  0  0  0  0  0
    1.9784   -0.4551   -1.0720 H   0  0  0  0  0  0  0  0  0  0  0  0
    2.4180    1.2130   -0.5808 H   0  0  0  0  0  0  0  0  0  0  0  0
    1.7406   -1.1039    1.3092 H   0  0  0  0  0  0  0  0  0  0  0  0
    3.3621   -0.4630    1.0148 H   0  0  0  0  0  0  0  0  0  0  0  0
    2.1460    0.5428    1.8189 H   0  0  0  0  0  0  0  0  0  0  0  0
  1  2  1  0  0  0  0
  2  3  1  0  0  0  0
  3  4  2  0  0  0  0
  3  5  1  0  0  0  0
  5  6  1  0  0  0  0
  6  7  1  0  0  0  0
  1  8  1  0  0  0  0
  1  9  1  0  0  0  0
  1 10  1  0  0  0  0
  2 11  1  0  0  0  0
  2 12  1  0  0  0  0
  6 13  1  0  0  0  0
  6 14  1  0  0  0  0
  7 15  1  0  0  0  0
  7 16  1  0  0  0  0
  7 17  1  0  0  0  0
M  END
