 xtb: 6.7.1 (edcfbbe)
          04112511583D

 18 17  0     0  0            999 V2000
   -2.0625    0.5685   -0.6879 C   0  0  0  0  0  0  0  0  0  0  0  0
   -1.3809    0.3467    0.6575 C   0  0  0  0  0  0  0  0  0  0  0  0
    0.0388   -0.2215    0.5324 C   0  0  0  0  0  0  0  0  0  0  0  0
    0.9651    0.6850   -0.2899 C   0  0  0  0  0  0  0  0  0  0  0  0
    2.4404    0.3386   -0.1128 C   0  0  0  0  0  0  0  0  0  0  0  0
   -0.0754   -1.5189   -0.0303 O   0  0  0  0  0  0  0  0  0  0  0  0
   -1.5819    1.3697   -1.2426 H   0  0  0  0  0  0  0  0  0  0  0  0
   -2.0168   -0.3446   -1.2758 H   0  0  0  0  0  0  0  0  0  0  0  0
   -3.1057    0.8331   -0.5363 H   0  0  0  0  0  0  0  0  0  0  0  0
   -1.3335    1.2828    1.2156 H   0  0  0  0  0  0  0  0  0  0  0  0
   -1.9665   -0.3685    1.2383 H   0  0  0  0  0  0  0  0  0  0  0  0
    0.4528   -0.3117    1.5523 H   0  0  0  0  0  0  0  0  0  0  0  0
    0.6930    0.5986   -1.3426 H   0  0  0  0  0  0  0  0  0  0  0  0
    0.7986    1.7161    0.0246 H   0  0  0  0  0  0  0  0  0  0  0  0
    2.6589   -0.6624   -0.4780 H   0  0  0  0  0  0  0  0  0  0  0  0
    3.0567    1.0391   -0.6703 H   0  0  0  0  0  0  0  0  0  0  0  0
    2.7218    0.3934    0.9369 H   0  0  0  0  0  0  0  0  0  0  0  0
    0.8074   -1.8988   -0.1248 H   0  0  0  0  0  0  0  0  0  0  0  0
  1  2  1  0  0  0  0
  2  3  1  0  0  0  0
  3  4  1  0  0  0  0
  4  5  1  0  0  0  0
  3  6  1  0  0  0  0
  1  7  1  0  0  0  0
  1  8  1  0  0  0  0
  1  9  1  0  0  0  0
  2 10  1  0  0  0  0
  2 11  1  0  0  0  0
  3 12  1  0  0  0  0
  4 13  1  0  0  0  0
  4 14  1  0  0  0  0
  5 15  1  0  0  0  0
  5 16  1  0  0  0  0
  5 17  1  0  0  0  0
  6 18  1  0  0  0  0
M  END
