  9
 
 C         -1.3773258990       -0.6012802277        0.0001389461
 S         -0.0009878126        0.5817334959       -0.0001926277
 C          1.3750562459       -0.6015558081       -0.0000383757
 H         -2.2935134693       -0.0208059372       -0.0003138716
 H         -1.3270005574       -1.2170081751        0.8941341806
 H         -1.3266723721       -1.2178839714       -0.8932397563
 H          2.2913682185       -0.0212938739        0.0001244536
 H          1.3245512278       -1.2176650321       -0.8937449508
 H          1.3242756982       -1.2177395248        0.8936071895
           9
        -10.57154896
 C         -1.3756496181       -0.5894064721       -0.0000048287
 S         -0.0000017273        0.5938355936       -0.0000039841
 C          1.3756682753       -0.5894108229        0.0000019506
 H         -1.3239691807       -1.2062770050        0.8931221793
 H         -1.3255270949       -1.2047600890       -0.8942524260
 H         -2.2923053846       -0.0096476807        0.0012956721
 H          2.2923088221       -0.0096459598        0.0000720380
 H          1.3247156029       -1.2054913798       -0.8937408708
 H          1.3246098429       -1.2055258390        0.8936644327
