 9

C      0.986000    -0.329000     0.340000
S      1.224000     0.182000     2.058000
C      2.885000    -0.487000     2.310000
H      0.003000    -0.006000    -0.011000
H      1.051000    -1.417000     0.264000
H      1.756000     0.120000    -0.291000
H      3.218000    -0.272000     3.327000
H      3.577000    -0.029000     1.601000
H      2.873000    -1.567000     2.155000
