  9
 
 C          0.9860000000       -0.3290000000        0.3400000000
 S          1.2240000000        0.1820000000        2.0580000000
 C          2.8850000000       -0.4870000000        2.3100000000
 H          0.0030000000       -0.0060000000       -0.0110000000
 H          1.0510000000       -1.4170000000        0.2640000000
 H          1.7560000000        0.1200000000       -0.2910000000
 H          3.2180000000       -0.2720000000        3.3270000000
 H          3.5770000000       -0.0290000000        1.6010000000
 H          2.8730000000       -1.5670000000        2.1550000000
