  15
 
 C          1.2792496026       -1.7221635078        0.0000688165
 C          2.2139131511       -0.6967480366        0.0000265396
 C          1.8053475953        0.6238782723       -0.0000441962
 C          0.4519284570        0.9453169002       -0.0001813748
 C         -0.5000493949       -0.0880246050       -0.0002592890
 C         -0.0644568388       -1.4138085478        0.0000195141
 C         -1.9346937656        0.2107312277       -0.0009323779
 O         -2.8113097402       -0.6179943848        0.0002939314
 O          0.0295336338        2.2312562532       -0.0002600566
 H          1.6039369835       -2.7509315258        0.0000877243
 H          3.2691749049       -0.9253864796        0.0001227838
 H          2.5395853213        1.4192575091       -0.0000021948
 H         -0.8184112238       -2.1864735187       -0.0000630797
 H         -2.1660409157        1.2904046190        0.0006763461
 H          0.7883003636        2.8287444367       -0.0001506249
          15
        -26.15608230
 C          2.0749129992       -1.0208198295       -0.0000592940
 C          2.3288471641        0.3499309645        0.0001855121
 C          1.2958802430        1.2596124468        0.0001662917
 C         -0.0321629368        0.8214778388       -0.0000445166
 C         -0.2950124629       -0.5675982554       -0.0001774844
 C          0.7764934684       -1.4703398398       -0.0001884988
 C         -1.6604609627       -1.0456919759        0.0000514539
 O         -2.6520846911       -0.3362524717        0.0002526917
 O         -1.0101615526        1.7259647678       -0.0002483273
 H          2.8954275847       -1.7212940117        0.0001841021
 H          3.3491039663        0.7034060657        0.0004320930
 H          1.4810755717        2.3221015163        0.0002138362
 H          0.5605441112       -2.5291378268        0.0000186863
 H         -1.7649072243       -2.1452484278       -0.0001340250
 H         -1.8755460922        1.2518956818        0.0000089281
