 15

C      1.885000    -1.036000    -0.112000
C      2.921000    -1.631000     0.608000
C      2.878000    -1.652000     2.002000
C      1.800000    -1.079000     2.676000
C      0.764000    -0.484000     1.955000
C      0.807000    -0.463000     0.561000
C     -0.371000     0.120000     2.638000
O     -1.308000     0.656000     2.041000
O      1.776000    -1.109000     4.038000
H      1.919000    -1.020000    -1.198000
H      3.761000    -2.077000     0.084000
H      3.689000    -2.117000     2.557000
H      0.005000    -0.003000    -0.011000
H     -0.374000     0.087000     3.749000
H      2.568000    -1.557000     4.376000
