  23
 
 C          4.6618764800        1.0587637977        0.0003099157
 C          3.6272498310       -0.0503447363        0.0002157633
 O          2.3261267310        0.5456313693       -0.0004094429
 C          1.2863442702       -0.3008243932       -0.0008212176
 O          1.4006201359       -1.4906267398        0.0000352051
 C          0.0016641125        0.5092596373       -0.0014701900
 C         -1.2834499983       -0.3001697253       -0.0001328357
 O         -1.3983306211       -1.4899105284       -0.0002376750
 O         -2.3227609702        0.5468582043        0.0000911256
 C         -3.6242340916       -0.0483183502        0.0009964195
 C         -4.6581586769        1.0614412475        0.0009097185
 H          5.6582690585        0.6268867315        0.0002254447
 H          4.5438728938        1.6815194265       -0.8821979549
 H          4.5439408215        1.6813675028        0.8829294452
 H          3.7223431295       -0.6870125124        0.8866837771
 H          3.7229134218       -0.6872697799       -0.8860085259
 H          0.0019603818        1.1629179144        0.8736721635
 H          0.0016933194        1.1605239475       -0.8784084880
 H         -3.7204656358       -0.6856026003       -0.8849056375
 H         -3.7195662486       -0.6845092376        0.8877848818
 H         -5.6548251026        0.6301973173        0.0024649894
 H         -4.5388137002        1.6849673003        0.8826887341
 H         -4.5407553504        1.6831162175       -0.8824312906
          23
        -37.40094359
 C          2.7202607766       -1.7643587660        0.4356378805
 C          3.1252618232       -0.3386751540        0.0921060776
 O          2.0675923225        0.5810217868        0.3800116054
 C          1.0972401356        0.6958822219       -0.5195026240
 O          1.0729361966        0.1409313249       -1.5840392605
 C         -0.0000326591        1.6155034370       -0.0034955728
 C         -1.1010624624        0.7019707209        0.5165635136
 O         -1.0844580567        0.1612042063        1.5885151072
 O         -2.0635262591        0.5749401913       -0.3893614154
 C         -3.1227370838       -0.3425239864       -0.0997104699
 C         -2.7116207192       -1.7723773874       -0.4175381256
 H          1.9108031683       -2.0877785324       -0.2142161054
 H          3.5685987011       -2.4286311217        0.2989981855
 H          2.3854684332       -1.8179795606        1.4685909030
 H          3.3853913134       -0.2595074280       -0.9685650419
 H          3.9621829079       -0.0055997705        0.7086580481
 H          0.3896568290        2.2207856876        0.8120841781
 H         -0.3880042667        2.2173337602       -0.8224948995
 H         -3.3951196299       -0.2480547372        0.9566836832
 H         -3.9531131709       -0.0200473734       -0.7306758527
 H         -2.3686248904       -1.8414441507       -1.4467352771
 H         -1.9066476761       -2.0835065409        0.2436236717
 H         -3.5593484048       -2.4366089797       -0.2769727571
