 xtb: 6.7.1 (edcfbbe)
          04112511493D

 17 16  0     0  0            999 V2000
   -3.0656    0.7988    0.0559 C   0  0  0  0  0  0  0  0  0  0  0  0
   -1.5419    0.8360    0.0616 C   0  0  0  0  0  0  0  0  0  0  0  0
   -0.9608   -0.5705   -0.0509 C   0  0  0  0  0  0  0  0  0  0  0  0
    0.5439   -0.6332   -0.0584 C   0  0  0  0  0  0  0  0  0  0  0  0
    1.1717   -1.6675   -0.1822 O   0  0  0  0  0  0  0  0  0  0  0  0
    1.1128    0.5550    0.0793 O   0  0  0  0  0  0  0  0  0  0  0  0
    2.5406    0.6415    0.0894 C   0  0  0  0  0  0  0  0  0  0  0  0
   -3.4369    0.2125    0.8928 H   0  0  0  0  0  0  0  0  0  0  0  0
   -3.4677    1.8050    0.1357 H   0  0  0  0  0  0  0  0  0  0  0  0
   -3.4336    0.3535   -0.8652 H   0  0  0  0  0  0  0  0  0  0  0  0
   -1.1881    1.3012    0.9825 H   0  0  0  0  0  0  0  0  0  0  0  0
   -1.1854    1.4422   -0.7721 H   0  0  0  0  0  0  0  0  0  0  0  0
   -1.3050   -1.0582   -0.9661 H   0  0  0  0  0  0  0  0  0  0  0  0
   -1.3001   -1.1931    0.7808 H   0  0  0  0  0  0  0  0  0  0  0  0
    2.8756    0.7623    1.1191 H   0  0  0  0  0  0  0  0  0  0  0  0
    2.8045    1.5154   -0.5008 H   0  0  0  0  0  0  0  0  0  0  0  0
    2.9716   -0.2650   -0.3372 H   0  0  0  0  0  0  0  0  0  0  0  0
  1  2  1  0  0  0  0
  2  3  1  0  0  0  0
  3  4  1  0  0  0  0
  4  5  2  0  0  0  0
  4  6  1  0  0  0  0
  6  7  1  0  0  0  0
  1  8  1  0  0  0  0
  1  9  1  0  0  0  0
  1 10  1  0  0  0  0
  2 11  1  0  0  0  0
  2 12  1  0  0  0  0
  3 13  1  0  0  0  0
  3 14  1  0  0  0  0
  7 15  1  0  0  0  0
  7 16  1  0  0  0  0
  7 17  1  0  0  0  0
M  END
