 xtb: 6.7.1 (edcfbbe)
          04112512143D

 21 20  0     0  0            999 V2000
    2.4009    0.6119   -0.6531 C   0  0  0  0  0  0  0  0  0  0  0  0
    1.0762   -0.0897   -0.3399 C   0  0  0  0  0  0  0  0  0  0  0  0
    0.7273   -0.6062   -1.2391 H   0  0  0  0  0  0  0  0  0  0  0  0
    0.0306    0.9409    0.1134 C   0  0  0  0  0  0  0  0  0  0  0  0
   -1.4315    0.4675    0.1549 C   0  0  0  0  0  0  0  0  0  0  0  0
   -1.9150   -0.0265   -1.2077 C   0  0  0  0  0  0  0  0  0  0  0  0
   -1.6622   -0.6016    1.2207 C   0  0  0  0  0  0  0  0  0  0  0  0
    1.2746   -1.1282    0.6037 O   0  0  0  0  0  0  0  0  0  0  0  0
    2.2827    1.2784   -1.5020 H   0  0  0  0  0  0  0  0  0  0  0  0
    2.7343    1.1928    0.2047 H   0  0  0  0  0  0  0  0  0  0  0  0
    3.1606   -0.1284   -0.8923 H   0  0  0  0  0  0  0  0  0  0  0  0
    0.3088    1.2984    1.1087 H   0  0  0  0  0  0  0  0  0  0  0  0
    0.0924    1.7888   -0.5715 H   0  0  0  0  0  0  0  0  0  0  0  0
   -2.0310    1.3470    0.4229 H   0  0  0  0  0  0  0  0  0  0  0  0
   -1.4525   -0.9775   -1.4596 H   0  0  0  0  0  0  0  0  0  0  0  0
   -1.6783    0.6951   -1.9860 H   0  0  0  0  0  0  0  0  0  0  0  0
   -2.9926   -0.1722   -1.1896 H   0  0  0  0  0  0  0  0  0  0  0  0
   -1.0531   -1.4781    1.0166 H   0  0  0  0  0  0  0  0  0  0  0  0
   -1.4043   -0.2220    2.2068 H   0  0  0  0  0  0  0  0  0  0  0  0
   -2.7079   -0.9004    1.2323 H   0  0  0  0  0  0  0  0  0  0  0  0
    1.6365   -0.7423    1.4135 H   0  0  0  0  0  0  0  0  0  0  0  0
  1  2  1  0  0  0  0
  2  3  1  0  0  0  0
  2  4  1  0  0  0  0
  4  5  1  0  0  0  0
  5  6  1  0  0  0  0
  5  7  1  0  0  0  0
  2  8  1  0  0  0  0
  1  9  1  0  0  0  0
  1 10  1  0  0  0  0
  1 11  1  0  0  0  0
  4 12  1  0  0  0  0
  4 13  1  0  0  0  0
  5 14  1  0  0  0  0
  6 15  1  0  0  0  0
  6 16  1  0  0  0  0
  6 17  1  0  0  0  0
  7 18  1  0  0  0  0
  7 19  1  0  0  0  0
  7 20  1  0  0  0  0
  8 21  1  0  0  0  0
M  END
