  14
 
 C          1.0220000000       -0.7750000000        0.9550000000
 C          1.5580000000        0.3510000000        0.0820000000
 C          0.3280000000        1.1760000000       -0.2730000000
 C         -0.7500000000        0.1230000000       -0.3010000000
 O         -1.8730000000        0.3080000000       -0.7520000000
 C         -0.2860000000       -1.1830000000        0.2890000000
 H          0.8290000000       -0.4020000000        1.9680000000
 H          1.7230000000       -1.6120000000        1.0320000000
 H          2.3200000000        0.9480000000        0.5930000000
 H          2.0090000000       -0.0640000000       -0.8270000000
 H          0.0940000000        1.9040000000        0.5090000000
 H          0.4330000000        1.6650000000       -1.2440000000
 H         -1.0060000000       -1.5730000000        1.0120000000
 H         -0.1170000000       -1.9000000000       -0.5190000000
