  17
 
 C         -1.2463928870        1.9135533058        0.1722934536
 O         -0.2475154856        1.0732969365       -0.3619098930
 C          0.1141155094        0.0172810248        0.4866207013
 O          1.2195143002       -0.6163352594       -0.0490774933
 C          2.3864679894        0.1790099292       -0.0791565184
 O         -0.9043337855       -0.8881883794        0.6823801257
 C         -1.2866555130       -1.6052901336       -0.4868087944
 H         -1.4414903877        2.6673496259       -0.5868785085
 H         -0.8962373139        2.3922635829        1.0944697823
 H         -2.1605604434        1.3531583994        0.3882744952
 H          0.3349490681        0.4216533118        1.5012224429
 H          3.1686714330       -0.4593805158       -0.4829199002
 H          2.6564888978        0.5068360024        0.9310861171
 H          2.2477777338        1.0529953017       -0.7195558099
 H         -2.1771663452       -2.1634284723       -0.2077516385
 H         -0.4909228962       -2.2864265796       -0.7930302513
 H         -1.5103863130       -0.9157199733       -1.3044403691
          17
        -25.85360710
 C         -1.3206324496       -1.8547321984       -0.0335520183
 O         -0.2810191472       -1.0340055455        0.4511442242
 C          0.0961694199       -0.0181659168       -0.4386200433
 O          1.2391227767        0.5884730258        0.0470791755
 C          2.3769256857       -0.2482457121        0.0666669850
 O         -0.8931826373        0.9194391030       -0.6330229532
 C         -1.2093221248        1.6885053288        0.5228465157
 H         -1.5297255621       -2.5724247052        0.7562507187
 H         -1.0056795184       -2.3797184565       -0.9430330816
 H         -2.2166856711       -1.2679835579       -0.2544822792
 H          0.2725651701       -0.4603071870       -1.4461156042
 H          3.1918783117        0.3704187429        0.4346260910
 H          2.6083066803       -0.6094527196       -0.9419888499
 H          2.2240819168       -1.1014002883        0.7316988187
 H         -2.0974935371        2.2581822066        0.2603376938
 H         -0.3858082399        2.3601876428        0.7700580986
 H         -1.4144089361        1.0353984286        1.3741147616
