 17

C     -0.640000     0.320000    -0.831000
O      0.023000     0.000000    -2.047000
C     -0.686000     0.475000    -3.199000
O     -0.285000    -0.222000    -4.389000
C     -0.910000    -1.493000    -4.512000
O     -0.568000     1.897000    -3.376000
C      0.775000     2.332000    -3.542000
H     -0.060000    -0.063000     0.013000
H     -1.639000    -0.125000    -0.832000
H     -0.727000     1.405000    -0.748000
H     -1.758000     0.287000    -3.058000
H     -0.569000    -1.974000    -5.429000
H     -1.993000    -1.361000    -4.532000
H     -0.632000    -2.104000    -3.652000
H      0.789000     3.416000    -3.670000
H      1.206000     1.842000    -4.417000
H      1.344000     2.061000    -2.652000
