  17
 
 C         -0.6400000000        0.3200000000       -0.8310000000
 O          0.0230000000        0.0000000000       -2.0470000000
 C         -0.6860000000        0.4750000000       -3.1990000000
 O         -0.2850000000       -0.2220000000       -4.3890000000
 C         -0.9100000000       -1.4930000000       -4.5120000000
 O         -0.5680000000        1.8970000000       -3.3760000000
 C          0.7750000000        2.3320000000       -3.5420000000
 H         -0.0600000000       -0.0630000000        0.0130000000
 H         -1.6390000000       -0.1250000000       -0.8320000000
 H         -0.7270000000        1.4050000000       -0.7480000000
 H         -1.7580000000        0.2870000000       -3.0580000000
 H         -0.5690000000       -1.9740000000       -5.4290000000
 H         -1.9930000000       -1.3610000000       -4.5320000000
 H         -0.6320000000       -2.1040000000       -3.6520000000
 H          0.7890000000        3.4160000000       -3.6700000000
 H          1.2060000000        1.8420000000       -4.4170000000
 H          1.3440000000        2.0610000000       -2.6520000000
