14
CONF1
C 2.2455280197 -0.2159777537 -0.0974216517
O 0.8923180303 -0.3078192436 0.3451688675
C 0.0810416417 0.7192706991 -0.2375930132
C -1.3432975759 0.5571692337 0.2539282976
N -2.0096220950 -0.6948016271 -0.1412471148
H 2.3122249971 -0.3134468323 -1.1905617918
H 2.7992029850 -1.0333303238 0.3707185258
H 2.6946135440 0.7425042767 0.2009094066
H 0.4716384411 1.7095346266 0.0489041987
H 0.1199814005 0.6410080547 -1.3369782236
H -1.3540772988 0.6303283349 1.3475267914
H -1.9243015529 1.4048325826 -0.1259759069
H -1.4416638664 -1.4695484576 0.1903721877
H -1.9741662894 -0.7611966328 -1.1556288479
14
CONF4
C 2.3984369706 -0.0074397297 -0.1617102339
O 1.1594021262 0.1236220925 0.5343975355
C 0.0425944988 -0.0683794719 -0.3408286629
C -1.2372511028 0.0830322712 0.4638982720
N -2.4554348912 -0.0997275483 -0.3400322442
H 2.5023136429 -1.0110655449 -0.5984438809
H 3.1996003339 0.1537196215 0.5636359045
H 2.4820210979 0.7392404537 -0.9644139425
H 0.0719055117 0.6752938151 -1.1545014887
H 0.0906705911 -1.0722155866 -0.7948072258
H -1.2376854985 -0.6473315500 1.2805259231
H -1.2596440880 1.0782904234 0.9214787443
H -2.4110947432 -1.0152782907 -0.7800682060
H -2.4303574429 0.5640077132 -1.1098795183
14
CONF5
C 2.2402151756 -0.2450064068 -0.1779509644
O 0.9043943419 -0.3055191264 0.3185114248
C 0.0781532781 0.7013826057 -0.2799381206
C -1.3282440147 0.5484319255 0.2448935647
N -1.9177662473 -0.7361329677 -0.1736473180
H 2.8138697881 -1.0241611110 0.3297979928
H 2.6958058875 0.7336874536 0.0315973348
H 2.2679643435 -0.4243931020 -1.2624577464
H 0.4669446863 1.7001775676 -0.0261832723
H 0.0979271719 0.5909895399 -1.3760260476
H -1.3136228264 0.6845807528 1.3383527602
H -1.9263447837 1.3659525627 -0.1723375571
H -2.8519114311 -0.7984370769 0.2195010017
H -1.3930958474 -1.4806232239 0.2760344847
14
CONF15
C 2.2534756037 -0.2654972554 0.1508377414
O 0.9263010536 -0.3093200755 -0.3691334797
C 0.0857456904 0.6572758004 0.2702973766
C -1.3242825465 0.5455161700 -0.2612530672
N -1.9619404940 -0.7237871681 0.1351211311
H 2.8442908415 -1.0038191955 -0.3968313413
H 2.2679682267 -0.5144383384 1.2219719938
H 2.7016837433 0.7293809329 0.0126088383
H 0.0979217613 0.4954208389 1.3615402378
H 0.4731270073 1.6700442914 0.0764344282
H -1.8713351003 1.4346557325 0.0906482533
H -1.2975410481 0.6007181078 -1.3554966388
H -2.8967160014 -0.7453829547 -0.2607594690
H -2.1003272542 -0.7014655145 1.1421699133
14
CONF2
C 1.7901597915 -0.3731977750 0.5312330580
O 1.0331637813 -0.1327191085 -0.6569466672
C 0.0428044054 0.8924918831 -0.4890293048
C -1.0898707458 0.5020477150 0.4514695488
N -1.7931493560 -0.7398164839 0.0925241486
H 2.2095282494 0.5639835986 0.9260654936
H 2.6083977572 -1.0446467907 0.2574532578
H 1.1892982672 -0.8523494519 1.3160880440
H 0.5240392358 1.8175680103 -0.1308447737
H -0.3563774928 1.0751414075 -1.4934775787
H -0.7168698531 0.4108242959 1.4776511357
H -1.8052608126 1.3329871166 0.4584711947
H -1.1017396500 -1.4843733847 0.0521851074
H -2.1247895032 -0.6451680825 -0.8646453435
14
CONF7
C 1.8117837945 -0.3097231773 0.5001083154
O 1.0248316908 -0.1738839316 -0.6854524517
C 0.0244078724 0.8511364923 -0.5794329967
C -1.0718777854 0.5268310173 0.4161341308
N -1.7360456457 -0.7403654101 0.0639229567
H 2.6269017666 -0.9980602442 0.2636144969
H 1.2328771495 -0.7240877292 1.3356913786
H 2.2342750790 0.6584501567 0.8046123215
H 0.4996193328 1.8060933937 -0.3063545026
H -0.3982161378 0.9441786175 -1.5855562016
H -0.6618289939 0.5335124883 1.4379895778
H -1.8020007842 1.3431962653 0.3677049681
H -2.3982951972 -0.9688136904 0.7991466073
H -1.0345830269 -1.4753778726 0.1013254782
14
CONF8
C 2.3966405086 -0.0476490139 -0.1788083170
O 1.1623708153 0.2120223391 0.4876227996
C 0.0444820310 -0.1013426506 -0.3457783502
C -1.2243624713 0.1848807951 0.4320038863
N -2.3931647982 -0.1723425813 -0.3909346560
H 3.2025462801 0.2166855927 0.5100660960
H 2.4886347760 0.5580356519 -1.0920003947
H 2.4850732472 -1.1103404861 -0.4474100480
H 0.0786077597 0.5034305960 -1.2656962503
H 0.0818133258 -1.1646728316 -0.6370562908
H -1.1813644430 -0.3565441870 1.3900518094
H -1.2698762674 1.2545074930 0.6636210895
H -3.2310518637 0.0710937833 0.1276383084
H -2.4196343493 -1.1847434642 -0.4775990102
14
CONF12
C 1.7678525627 -0.7779247533 0.2065004331
O 1.0147365961 0.2097796534 -0.4992405169
C 0.0266469772 0.8695773707 0.3169499566
C -1.3724883712 0.5333180259 -0.1671644854
N -1.7335632472 -0.8917513652 -0.0909489379
H 1.1198322135 -1.5575723714 0.6289455849
H 2.3562986150 -0.3253474830 1.0171992064
H 2.4514662694 -1.2353783888 -0.5140494190
H 0.1493438644 0.5736328013 1.3677725516
H 0.1962623451 1.9531231647 0.2466842847
H -2.0865421403 1.1187022681 0.4247714099
H -1.4786940769 0.8643644234 -1.2069511557
H -1.5990599931 -1.1972864524 0.8701833446
H -1.0426771961 -1.4127565746 -0.6253982536
