 23

C     -0.177000    -0.306000    -1.058000
C     -1.612000     0.027000    -1.468000
C     -1.782000    -0.198000    -2.974000
C     -2.654000    -0.808000    -0.698000
C     -2.648000    -0.647000     0.836000
C     -2.918000     0.793000     1.274000
C     -3.695000    -1.579000     1.455000
H     -0.035000    -0.151000     0.017000
H      0.066000    -1.352000    -1.268000
H      0.544000     0.326000    -1.587000
H     -1.788000     1.091000    -1.277000
H     -2.805000     0.035000    -3.289000
H     -1.098000     0.434000    -3.551000
H     -1.583000    -1.242000    -3.236000
H     -2.502000    -1.870000    -0.938000
H     -3.654000    -0.552000    -1.075000
H     -1.671000    -0.951000     1.227000
H     -2.909000     0.886000     2.364000
H     -2.167000     1.479000     0.866000
H     -3.902000     1.126000     0.928000
H     -3.707000    -1.480000     2.546000
H     -4.700000    -1.352000     1.083000
H     -3.473000    -2.625000     1.219000
