 xtb: 6.7.1 (edcfbbe)
          04112512023D

 17 16  0     0  0            999 V2000
   -2.1820    0.8968    0.7239 C   0  0  0  0  0  0  0  0  0  0  0  0
   -1.8091    0.3813   -0.6607 C   0  0  0  0  0  0  0  0  0  0  0  0
   -0.9219   -0.8675   -0.5820 C   0  0  0  0  0  0  0  0  0  0  0  0
    0.4029   -0.5582    0.0641 C   0  0  0  0  0  0  0  0  0  0  0  0
    0.8135   -1.0587    1.0908 O   0  0  0  0  0  0  0  0  0  0  0  0
    1.0939    0.3409   -0.6282 O   0  0  0  0  0  0  0  0  0  0  0  0
    2.3695    0.7303   -0.1161 C   0  0  0  0  0  0  0  0  0  0  0  0
   -2.8132    1.7777    0.6441 H   0  0  0  0  0  0  0  0  0  0  0  0
   -2.7199    0.1346    1.2830 H   0  0  0  0  0  0  0  0  0  0  0  0
   -1.2903    1.1616    1.2893 H   0  0  0  0  0  0  0  0  0  0  0  0
   -1.2793    1.1573   -1.2147 H   0  0  0  0  0  0  0  0  0  0  0  0
   -2.7161    0.1268   -1.2099 H   0  0  0  0  0  0  0  0  0  0  0  0
   -0.7241   -1.2346   -1.5897 H   0  0  0  0  0  0  0  0  0  0  0  0
   -1.4089   -1.6489    0.0012 H   0  0  0  0  0  0  0  0  0  0  0  0
    2.7682    1.4418   -0.8322 H   0  0  0  0  0  0  0  0  0  0  0  0
    3.0177   -0.1422   -0.0261 H   0  0  0  0  0  0  0  0  0  0  0  0
    2.2541    1.1874    0.8676 H   0  0  0  0  0  0  0  0  0  0  0  0
  1  2  1  0  0  0  0
  2  3  1  0  0  0  0
  3  4  1  0  0  0  0
  4  5  2  0  0  0  0
  4  6  1  0  0  0  0
  6  7  1  0  0  0  0
  1  8  1  0  0  0  0
  1  9  1  0  0  0  0
  1 10  1  0  0  0  0
  2 11  1  0  0  0  0
  2 12  1  0  0  0  0
  3 13  1  0  0  0  0
  3 14  1  0  0  0  0
  7 15  1  0  0  0  0
  7 16  1  0  0  0  0
  7 17  1  0  0  0  0
M  END
