 xtb: 6.7.1 (edcfbbe)
          04112511013D

 20 19  0     0  0            999 V2000
   -1.7613   -0.5932    0.8224 C   0  0  0  0  0  0  0  0  0  0  0  0
   -1.1698   -0.5029   -0.5821 C   0  0  0  0  0  0  0  0  0  0  0  0
    0.0291    0.4494   -0.7602 C   0  0  0  0  0  0  0  0  0  0  0  0
   -0.1045    1.7249    0.0697 C   0  0  0  0  0  0  0  0  0  0  0  0
    1.3902   -0.2329   -0.5423 C   0  0  0  0  0  0  0  0  0  0  0  0
    1.6329   -0.8348    0.8369 C   0  0  0  0  0  0  0  0  0  0  0  0
   -2.5441   -1.3492    0.8348 H   0  0  0  0  0  0  0  0  0  0  0  0
   -1.0139   -0.8673    1.5597 H   0  0  0  0  0  0  0  0  0  0  0  0
   -2.2055    0.3535    1.1170 H   0  0  0  0  0  0  0  0  0  0  0  0
   -1.9676   -0.1756   -1.2540 H   0  0  0  0  0  0  0  0  0  0  0  0
   -0.8664   -1.5007   -0.9075 H   0  0  0  0  0  0  0  0  0  0  0  0
    0.0261    0.7533   -1.8154 H   0  0  0  0  0  0  0  0  0  0  0  0
   -1.0478    2.2195   -0.1502 H   0  0  0  0  0  0  0  0  0  0  0  0
    0.7045    2.4109   -0.1721 H   0  0  0  0  0  0  0  0  0  0  0  0
   -0.0659    1.5133    1.1337 H   0  0  0  0  0  0  0  0  0  0  0  0
    1.4997   -1.0237   -1.2892 H   0  0  0  0  0  0  0  0  0  0  0  0
    2.1683    0.5091   -0.7409 H   0  0  0  0  0  0  0  0  0  0  0  0
    0.9685   -1.6751    1.0177 H   0  0  0  0  0  0  0  0  0  0  0  0
    1.4900   -0.0949    1.6197 H   0  0  0  0  0  0  0  0  0  0  0  0
    2.6566   -1.1982    0.9000 H   0  0  0  0  0  0  0  0  0  0  0  0
  1  2  1  0  0  0  0
  2  3  1  0  0  0  0
  3  4  1  0  0  0  0
  3  5  1  0  0  0  0
  5  6  1  0  0  0  0
  1  7  1  0  0  0  0
  1  8  1  0  0  0  0
  1  9  1  0  0  0  0
  2 10  1  0  0  0  0
  2 11  1  0  0  0  0
  3 12  1  0  0  0  0
  4 13  1  0  0  0  0
  4 14  1  0  0  0  0
  4 15  1  0  0  0  0
  5 16  1  0  0  0  0
  5 17  1  0  0  0  0
  6 18  1  0  0  0  0
  6 19  1  0  0  0  0
  6 20  1  0  0  0  0
M  END
