26
CONF2
C 0.5494761289 1.4235343843 1.0435137333
C 1.8948696055 1.6500984442 1.2125870035
C 2.8445894601 0.8680467475 0.5485912036
C 2.3940655707 -0.1573454455 -0.3072842543
C 1.0232241827 -0.3686288240 -0.4717720958
C 0.0921893794 0.4073186669 0.1962332549
C -1.3462800123 0.1648865089 0.0017422340
C -1.8629174146 -0.0818338404 -1.2705657002
C -3.2102849938 -0.3113183812 -1.4764057374
C -4.0578906561 -0.2982818955 -0.3850518498
C -3.6014360148 -0.0670654242 0.8980381285
C -2.2491056588 0.1622738293 1.0626909502
F -1.8040256740 0.3641846571 2.3299483871
F -5.3846819153 -0.5213732045 -0.5713428654
C 3.3608233388 -0.9976963708 -1.0178015333
O 4.5780214012 -0.8726101969 -0.9120565386
O 2.8276614476 -1.9194637043 -1.8007858990
O 4.1382280255 1.1352871274 0.7587819131
H -0.1596300179 2.0487502369 1.5628117861
H 2.2518325450 2.4343562084 1.8600801479
H 0.7019612950 -1.1700753202 -1.1176879072
H -1.1908238126 -0.0748128679 -2.1128341642
H -3.6053082049 -0.4953581798 -2.4613876000
H -4.2696306005 -0.0684542421 1.7427188922
H 3.5075562534 -2.4552157214 -2.2533578701
H 4.6970468903 0.5147423627 0.2382747300
26
CONF1
C 0.5299157250 1.9319349360 0.3426786393
C 1.8771289004 2.1912123762 0.4199904200
C 2.8163611135 1.1800392933 0.1930743692
C 2.3524849405 -0.1138904529 -0.1178330275
C 0.9785495667 -0.3603441957 -0.1844855032
C 0.0589472901 0.6475830857 0.0420789391
C -1.3883650694 0.3938013340 -0.0384907817
C -2.2361265968 1.2950254791 -0.6831081342
C -3.5979810802 1.0756115734 -0.7721285425
C -4.1228104286 -0.0668138329 -0.1986995920
C -3.3326352395 -0.9896028373 0.4589575510
C -1.9758301870 -0.7378746265 0.5224614539
F -1.2083028525 -1.6368209038 1.1916972124
F -5.4591243067 -0.2967128535 -0.2778595774
C 3.3082311292 -1.1942210317 -0.3697667433
O 4.5268557348 -1.0518174283 -0.3079347811
O 2.7659711475 -2.3596231834 -0.6781383617
O 4.1128756177 1.4956110850 0.2824428721
H -0.1760273170 2.7234734767 0.5383046526
H 2.2460697648 3.1750038179 0.6600612389
H 0.6519830509 -1.3580247065 -0.4313484443
H -1.8097243353 2.1739753433 -1.1379498571
H -4.2477645955 1.7709613442 -1.2766029606
H -3.7540107340 -1.8719962344 0.9104261552
H 3.4407390790 -3.0485917508 -0.8334638814
H 4.6643757523 0.7003642827 0.1058430968
26
CONF4
C 0.5334912080 1.6562454879 0.6137163715
C 1.8778197999 1.9326994491 0.6776246292
C 2.8389896745 0.9669528020 0.3595076689
C 2.3982292997 -0.3130115345 -0.0266870373
C 1.0257184963 -0.5761689270 -0.0774284182
C 0.0834908085 0.3870719350 0.2327075635
C -1.3513777853 0.0681895756 0.1702844719
C -1.8355561827 -1.1427616690 0.6656433707
C -3.1794833913 -1.4622184423 0.6183784905
C -4.0565427680 -0.5523547684 0.0592796509
C -3.6330036228 0.6583005840 -0.4535313983
C -2.2829999769 0.9429853985 -0.3842257078
F -1.8700849113 2.1241543233 -0.9125594485
F -5.3803916054 -0.8517184721 0.0063304694
C 3.2867359068 -1.4261905353 -0.3935161869
O 2.8908732769 -2.5305325437 -0.7181171165
O 4.5941711508 -1.1516364869 -0.3489335456
O 4.1199966011 1.3419657633 0.4513338307
H -0.1779134509 2.4239080523 0.8738788769
H 2.2313484411 2.9064003697 0.9759121643
H 0.7241425290 -1.5636605768 -0.3930687494
H -1.1395468709 -1.8362843603 1.1084569310
H -3.5490534558 -2.3962619866 1.0070902998
H -4.3241454146 1.3557942857 -0.8960053447
H 5.1366482962 -1.9236057502 -0.6016098663
H 4.7247342274 0.6152096000 0.2115641621
26
CONF3
C 0.5227443405 1.9324473160 0.3456062069
C 1.8709776796 2.1822983201 0.4224169005
C 2.8141698502 1.1731671608 0.1959778545
C 2.3501861613 -0.1180101442 -0.1177629988
C 0.9725813700 -0.3530288488 -0.1833441333
C 0.0493807730 0.6498615307 0.0438338075
C -1.3967874436 0.3929841593 -0.0382855962
C -2.2463713572 1.2919117344 -0.6835618311
C -3.6072285799 1.0676263462 -0.7756674070
C -4.1287286106 -0.0777539578 -0.2051398180
C -3.3367422325 -0.9979236940 0.4539803115
C -1.9810718385 -0.7409425407 0.5213018195
F -1.2125694373 -1.6353990088 1.1960392969
F -5.4640236195 -0.3128396160 -0.2880264225
C 3.2187726726 -1.2712073943 -0.3953866561
O 2.8067730725 -2.3724880165 -0.7104741114
O 4.5306450524 -1.0376949562 -0.2814608463
O 4.1015104487 1.5237108849 0.2944136279
H -0.1798273994 2.7266737911 0.5416416874
H 2.2439208081 3.1646656545 0.6632203513
H 0.6578203166 -1.3549683073 -0.4343664496
H -1.8221923961 2.1730936119 -1.1362318498
H -4.2586751767 1.7611269874 -1.2804350104
H -3.7553469439 -1.8825378832 0.9036130705
H 5.0595088178 -1.8356811394 -0.4749227413
H 4.6938212211 0.7662626916 0.1321409258
