 xtb: 6.7.1 (edcfbbe)
          04112511443D

 15 14  0     0  0            999 V2000
   -1.7773   -1.1536    0.1870 C   0  0  0  0  0  0  0  0  0  0  0  0
   -1.5005    0.1865   -0.4658 C   0  0  0  0  0  0  0  0  0  0  0  0
    0.0179    1.0028    0.1472 S   0  0  0  0  0  0  0  0  0  0  0  0
    1.3335   -0.0747   -0.5407 C   0  0  0  0  0  0  0  0  0  0  0  0
    1.9047   -1.0279    0.4924 C   0  0  0  0  0  0  0  0  0  0  0  0
   -1.7839   -1.0505    1.2695 H   0  0  0  0  0  0  0  0  0  0  0  0
   -2.7489   -1.5211   -0.1358 H   0  0  0  0  0  0  0  0  0  0  0  0
   -1.0234   -1.8859   -0.0919 H   0  0  0  0  0  0  0  0  0  0  0  0
   -2.2883    0.9025   -0.2346 H   0  0  0  0  0  0  0  0  0  0  0  0
   -1.4056    0.0990   -1.5482 H   0  0  0  0  0  0  0  0  0  0  0  0
    0.8988   -0.6029   -1.3874 H   0  0  0  0  0  0  0  0  0  0  0  0
    2.1028    0.6074   -0.9016 H   0  0  0  0  0  0  0  0  0  0  0  0
    2.3205   -0.4682    1.3266 H   0  0  0  0  0  0  0  0  0  0  0  0
    1.1365   -1.6936    0.8770 H   0  0  0  0  0  0  0  0  0  0  0  0
    2.6944   -1.6258    0.0427 H   0  0  0  0  0  0  0  0  0  0  0  0
  1  2  1  0  0  0  0
  2  3  1  0  0  0  0
  3  4  1  0  0  0  0
  4  5  1  0  0  0  0
  1  6  1  0  0  0  0
  1  7  1  0  0  0  0
  1  8  1  0  0  0  0
  2  9  1  0  0  0  0
  2 10  1  0  0  0  0
  4 11  1  0  0  0  0
  4 12  1  0  0  0  0
  5 13  1  0  0  0  0
  5 14  1  0  0  0  0
  5 15  1  0  0  0  0
M  END
