24
 xtb: 6.7.1 (edcfbbe)
C           -3.36302923550349       -0.25567017689798       -0.64538419872447
C           -2.16563362362855       -0.47446206236314        0.27616167110465
C           -0.97473289107468        0.41086677681675       -0.08995675012888
C            0.25569067472263        0.18072643484897        0.79863148523763
C            0.99724146551161       -1.13040224558516        0.44459814480122
C            2.12744057134289       -0.73666380018495       -0.55010662909839
C            2.04528590459250        0.79675469514882       -0.70076084058892
C            1.33767407653413        1.25123823955361        0.57984732415655
H           -4.21259718662363       -0.88343734176010       -0.35668305854982
H           -3.69367489311750        0.78885659378031       -0.61741821401684
H           -3.10697247388516       -0.49561077949497       -1.68358988563907
H           -2.45675028051549       -0.26754576896342        1.31460900879108
H           -1.86839870086842       -1.53031029733637        0.24201113699388
H           -0.70902198863950        0.23913550626050       -1.14252836169601
H           -1.28293697531883        1.46293048874696       -0.01259533898259
H           -0.07829507923598        0.17276799103396        1.84411189291176
H            1.42808306846854       -1.57542991671176        1.34725200121256
H            0.31707596544204       -1.87408039536905        0.01801581322694
H            3.10219093372441       -1.02227721159898       -0.14185990102511
H            2.02474931237109       -1.24513488542297       -1.51327090930925
H            3.02872621257667        1.25914282259242       -0.83065765668615
H            1.44150877108282        1.06560722864214       -1.57448561115022
H            2.04758572282174        1.22919659289557        1.41676683237623
H            0.92560794491553        2.26397060038773        0.51440147905231
