 xtb: 6.7.1 (edcfbbe)
          04112512443D

 20 19  0     0  0            999 V2000
   -1.6077    0.3977    1.2710 C   0  0  0  0  0  0  0  0  0  0  0  0
   -1.6611   -0.5851    0.1039 C   0  0  0  0  0  0  0  0  0  0  0  0
   -2.9792   -0.4580   -0.6548 C   0  0  0  0  0  0  0  0  0  0  0  0
   -0.4951   -0.3451   -0.8598 C   0  0  0  0  0  0  0  0  0  0  0  0
    0.7539   -0.6555   -0.2301 O   0  0  0  0  0  0  0  0  0  0  0  0
    1.6280    0.3162    0.0024 C   0  0  0  0  0  0  0  0  0  0  0  0
    1.4528    1.4753   -0.3142 O   0  0  0  0  0  0  0  0  0  0  0  0
    2.8520   -0.2035    0.6966 C   0  0  0  0  0  0  0  0  0  0  0  0
   -1.6723    1.4216    0.9078 H   0  0  0  0  0  0  0  0  0  0  0  0
   -0.6759    0.2904    1.8227 H   0  0  0  0  0  0  0  0  0  0  0  0
   -2.4329    0.2176    1.9544 H   0  0  0  0  0  0  0  0  0  0  0  0
   -1.5643   -1.6032    0.4944 H   0  0  0  0  0  0  0  0  0  0  0  0
   -3.0264   -1.1762   -1.4689 H   0  0  0  0  0  0  0  0  0  0  0  0
   -3.0804    0.5424   -1.0687 H   0  0  0  0  0  0  0  0  0  0  0  0
   -3.8136   -0.6399    0.0162 H   0  0  0  0  0  0  0  0  0  0  0  0
   -0.5699   -1.0078   -1.7253 H   0  0  0  0  0  0  0  0  0  0  0  0
   -0.4727    0.6975   -1.1924 H   0  0  0  0  0  0  0  0  0  0  0  0
    2.7869   -1.2804    0.8057 H   0  0  0  0  0  0  0  0  0  0  0  0
    2.9304    0.2710    1.6717 H   0  0  0  0  0  0  0  0  0  0  0  0
    3.7313    0.0726    0.1211 H   0  0  0  0  0  0  0  0  0  0  0  0
  1  2  1  0  0  0  0
  2  3  1  0  0  0  0
  2  4  1  0  0  0  0
  4  5  1  0  0  0  0
  5  6  1  0  0  0  0
  6  7  2  0  0  0  0
  6  8  1  0  0  0  0
  1  9  1  0  0  0  0
  1 10  1  0  0  0  0
  1 11  1  0  0  0  0
  2 12  1  0  0  0  0
  3 13  1  0  0  0  0
  3 14  1  0  0  0  0
  3 15  1  0  0  0  0
  4 16  1  0  0  0  0
  4 17  1  0  0  0  0
  8 18  1  0  0  0  0
  8 19  1  0  0  0  0
  8 20  1  0  0  0  0
M  END
