 xtb: 6.7.1 (edcfbbe)
          04112512153D

 21 20  0     0  0            999 V2000
    2.0702   -1.3782   -0.1719 C   0  0  0  0  0  0  0  0  0  0  0  0
    1.6693    0.0847   -0.3072 C   0  0  0  0  0  0  0  0  0  0  0  0
    0.3284    0.4476    0.3514 C   0  0  0  0  0  0  0  0  0  0  0  0
    0.3689    0.1752    1.4193 H   0  0  0  0  0  0  0  0  0  0  0  0
   -0.8733   -0.2883   -0.2926 C   0  0  0  0  0  0  0  0  0  0  0  0
   -1.2646   -1.5174    0.5276 C   0  0  0  0  0  0  0  0  0  0  0  0
   -2.0911    0.6249   -0.4355 C   0  0  0  0  0  0  0  0  0  0  0  0
    0.1228    1.8494    0.2501 O   0  0  0  0  0  0  0  0  0  0  0  0
    3.0724   -1.5212   -0.5686 H   0  0  0  0  0  0  0  0  0  0  0  0
    1.3931   -2.0238   -0.7235 H   0  0  0  0  0  0  0  0  0  0  0  0
    2.0694   -1.6784    0.8735 H   0  0  0  0  0  0  0  0  0  0  0  0
    2.4467    0.7020    0.1524 H   0  0  0  0  0  0  0  0  0  0  0  0
    1.6129    0.3593   -1.3632 H   0  0  0  0  0  0  0  0  0  0  0  0
   -0.5768   -0.6086   -1.2968 H   0  0  0  0  0  0  0  0  0  0  0  0
   -1.6327   -1.2117    1.5047 H   0  0  0  0  0  0  0  0  0  0  0  0
   -2.0563   -2.0632    0.0202 H   0  0  0  0  0  0  0  0  0  0  0  0
   -0.4229   -2.1874    0.6717 H   0  0  0  0  0  0  0  0  0  0  0  0
   -2.9102    0.0747   -0.8919 H   0  0  0  0  0  0  0  0  0  0  0  0
   -1.8552    1.4854   -1.0545 H   0  0  0  0  0  0  0  0  0  0  0  0
   -2.4095    0.9861    0.5393 H   0  0  0  0  0  0  0  0  0  0  0  0
    0.8694    2.3061    0.6591 H   0  0  0  0  0  0  0  0  0  0  0  0
  1  2  1  0  0  0  0
  2  3  1  0  0  0  0
  3  4  1  0  0  0  0
  3  5  1  0  0  0  0
  5  6  1  0  0  0  0
  5  7  1  0  0  0  0
  3  8  1  0  0  0  0
  1  9  1  0  0  0  0
  1 10  1  0  0  0  0
  1 11  1  0  0  0  0
  2 12  1  0  0  0  0
  2 13  1  0  0  0  0
  5 14  1  0  0  0  0
  6 15  1  0  0  0  0
  6 16  1  0  0  0  0
  6 17  1  0  0  0  0
  7 18  1  0  0  0  0
  7 19  1  0  0  0  0
  7 20  1  0  0  0  0
  8 21  1  0  0  0  0
M  END
