 xtb: 6.7.1 (edcfbbe)
          04112512023D

 20 19  0     0  0            999 V2000
    2.1141    0.9603   -0.4374 C   0  0  0  0  0  0  0  0  0  0  0  0
    1.7234   -0.4131    0.0956 C   0  0  0  0  0  0  0  0  0  0  0  0
    0.3349   -0.4564    0.7373 C   0  0  0  0  0  0  0  0  0  0  0  0
   -0.8251   -0.2079   -0.2448 C   0  0  0  0  0  0  0  0  0  0  0  0
   -1.3506    1.2238   -0.1455 C   0  0  0  0  0  0  0  0  0  0  0  0
   -1.9701   -1.1878    0.0131 C   0  0  0  0  0  0  0  0  0  0  0  0
    1.4673    1.2575   -1.2586 H   0  0  0  0  0  0  0  0  0  0  0  0
    2.0443    1.7078    0.3498 H   0  0  0  0  0  0  0  0  0  0  0  0
    3.1385    0.9433   -0.8032 H   0  0  0  0  0  0  0  0  0  0  0  0
    1.7636   -1.1406   -0.7187 H   0  0  0  0  0  0  0  0  0  0  0  0
    2.4569   -0.7199    0.8455 H   0  0  0  0  0  0  0  0  0  0  0  0
    0.2116   -1.4433    1.1887 H   0  0  0  0  0  0  0  0  0  0  0  0
    0.2912    0.2765    1.5454 H   0  0  0  0  0  0  0  0  0  0  0  0
   -0.4615   -0.3754   -1.2646 H   0  0  0  0  0  0  0  0  0  0  0  0
   -2.1258    1.3962   -0.8893 H   0  0  0  0  0  0  0  0  0  0  0  0
   -0.5559    1.9465   -0.3056 H   0  0  0  0  0  0  0  0  0  0  0  0
   -1.7791    1.3976    0.8397 H   0  0  0  0  0  0  0  0  0  0  0  0
   -1.6357   -2.2145   -0.1177 H   0  0  0  0  0  0  0  0  0  0  0  0
   -2.3439   -1.0728    1.0285 H   0  0  0  0  0  0  0  0  0  0  0  0
   -2.7912   -1.0051   -0.6767 H   0  0  0  0  0  0  0  0  0  0  0  0
  1  2  1  0  0  0  0
  2  3  1  0  0  0  0
  3  4  1  0  0  0  0
  4  5  1  0  0  0  0
  4  6  1  0  0  0  0
  1  7  1  0  0  0  0
  1  8  1  0  0  0  0
  1  9  1  0  0  0  0
  2 10  1  0  0  0  0
  2 11  1  0  0  0  0
  3 12  1  0  0  0  0
  3 13  1  0  0  0  0
  4 14  1  0  0  0  0
  5 15  1  0  0  0  0
  5 16  1  0  0  0  0
  5 17  1  0  0  0  0
  6 18  1  0  0  0  0
  6 19  1  0  0  0  0
  6 20  1  0  0  0  0
M  END
