 30

C      0.566000    -0.306000    -0.883000
C     -0.125000     0.151000    -2.159000
C     -1.524000    -0.452000    -2.284000
C     -2.216000     0.010000    -3.568000
C     -3.616000    -0.593000    -3.693000
C     -4.306000    -0.130000    -4.978000
C     -5.678000    -0.713000    -5.113000
C     -5.856000    -1.933000    -5.765000
C     -7.135000    -2.477000    -5.891000
C     -8.235000    -1.800000    -5.364000
C     -8.057000    -0.580000    -4.712000
C     -6.779000    -0.037000    -4.586000
H      1.564000     0.137000    -0.814000
H     -0.003000    -0.001000     0.001000
H      0.674000    -1.395000    -0.864000
H      0.484000    -0.141000    -3.022000
H     -0.189000     1.245000    -2.161000
H     -1.455000    -1.546000    -2.277000
H     -2.129000    -0.160000    -1.416000
H     -1.612000    -0.281000    -4.436000
H     -2.285000     1.105000    -3.574000
H     -4.219000    -0.306000    -2.822000
H     -3.546000    -1.688000    -3.681000
H     -4.377000     0.965000    -4.995000
H     -3.707000    -0.415000    -5.852000
H     -5.005000    -2.467000    -6.179000
H     -7.273000    -3.427000    -6.399000
H     -9.231000    -2.224000    -5.462000
H     -8.914000    -0.053000    -4.303000
H     -6.650000     0.914000    -4.076000
