21
CONF5
C 2.1736737565 -0.9508451641 -0.8081967386
C 1.5981452458 0.3635507174 -0.2867260046
C 0.3644275169 0.1934949316 0.5982113374
H 0.6561454431 -0.3516845290 1.5058609867
C -0.7944116998 -0.5809062780 -0.0527453765
C -1.9545696323 -0.7528073461 0.9288372548
C -1.2771241240 0.0518882496 -1.3590522185
O -0.0643988555 1.4893080052 1.0826263462
H 3.1226973519 -0.7761146241 -1.3245610324
H 1.4974018460 -1.4395313127 -1.5161403776
H 2.3654568591 -1.6512049656 0.0127811493
H 2.3577471707 0.8870789522 0.3061471694
H 1.3483720261 1.0233917736 -1.1284470656
H -0.3989819239 -1.5797266750 -0.2803698393
H -1.6147166829 -1.1932026128 1.8730941161
H -2.4254831124 0.2099060027 1.1545360106
H -2.7233029158 -1.4088224045 0.5067715417
H -2.1048549509 -0.5308201344 -1.7765030169
H -0.4864421454 0.0945053020 -2.1145850702
H -1.6475940521 1.0713085128 -1.1947509732
H -0.2384063406 2.0424802182 0.3088814185
21
CONF4
C 2.1709966111 -0.9358259118 -0.8250381481
C 1.5942395935 0.3707250451 -0.2865440898
C 0.3663146774 0.1893780306 0.6043981955
H 0.6649174459 -0.3604098477 1.5069947921
C -0.7921771724 -0.5857597208 -0.0464662793
C -1.9470404939 -0.7678024683 0.9392276388
C -1.2827923897 0.0521535376 -1.3469467383
O -0.0655468171 1.4806729997 1.0992834394
H 1.4893924884 -1.4225598446 -1.5291749316
H 2.3762462049 -1.6419669087 -0.0123447960
H 3.1130460336 -0.7519386241 -1.3509904176
H 2.3559322440 0.8906240866 0.3068160820
H 1.3373650075 1.0384492614 -1.1199308123
H -0.3937705654 -1.5818309217 -0.2809588421
H -2.7121676451 -1.4287851827 0.5183530134
H -1.6005105978 -1.2083411021 1.8809998291
H -2.4246955309 0.1907243693 1.1692057916
H -1.6527072937 1.0706714477 -1.1761922036
H -2.1127889638 -0.5289670946 -1.7621743945
H -0.4964228247 0.0982170718 -2.1067698828
H -0.2445565991 2.0381009090 0.3298327926
21
CONF6
C 2.1721607250 -0.9243747260 -0.8338684489
C 1.5900244779 0.3792437129 -0.2943982937
C 0.3689607570 0.1890799397 0.6037966882
H 0.6767907352 -0.3605990447 1.5032971878
C -0.7904068834 -0.5901179860 -0.0401452990
C -1.9316828395 -0.7916358826 0.9575257960
C -1.3015256373 0.0553799474 -1.3287265865
O -0.0668591262 1.4778783542 1.1053594843
H 1.4958239925 -1.4098215245 -1.5440702169
H 2.3730095937 -1.6330920515 -0.0221739023
H 3.1174773697 -0.7376650961 -1.3528705725
H 2.3509760633 0.9057463142 0.2938710131
H 1.3233951636 1.0437321636 -1.1272046704
H -0.3859726401 -1.5805703368 -0.2882169425
H -2.4066823589 0.1619004234 1.2124549294
H -2.7027592342 -1.4451653809 0.5354143667
H -1.5716279083 -1.2498464900 1.8856039904
H -0.5214251181 0.1269378647 -2.0931184459
H -1.6900641316 1.0642210014 -1.1417603424
H -2.1229151208 -0.5359525390 -1.7465473125
H -0.2548611675 2.0352703450 0.3378060339
21
CONF17
C 2.7283585202 -0.3522870282 0.2471473325
C 1.3593600585 -0.6683052816 -0.3498588194
C 0.2378157820 0.1922692135 0.2146881021
H 0.2090540532 0.0723276586 1.3115532120
C -1.1518367971 -0.1636567726 -0.3421479114
C -1.5519111090 -1.5894295375 0.0471336902
C -2.2136949355 0.8192587297 0.1580273617
O 0.5850177052 1.5651634294 -0.0909166828
H 3.4869127688 -1.0397032850 -0.1405601544
H 2.7103874990 -0.4557185642 1.3380550144
H 3.0511709303 0.6654693666 0.0110846631
H 1.3806350575 -0.5431106098 -1.4410279917
H 1.1198016129 -1.7179926244 -0.1559702177
H -1.0963326624 -0.0950962445 -1.4382788190
H -2.5801576719 -1.7933413337 -0.2689058287
H -0.9100483177 -2.3462364630 -0.4115605229
H -1.5067834201 -1.7181181623 1.1358852216
H -2.2551620920 0.8186761332 1.2548319658
H -3.2029933914 0.5318721512 -0.2125059449
H -2.0292586453 1.8444348825 -0.1790270399
H -0.0215529751 2.1367354590 0.3958531556
21
CONF2
C 2.7870004814 -0.0604533670 -0.2652792373
C 1.3594656226 -0.1026202992 -0.8035960776
C 0.3093974487 -0.2422583120 0.2952241631
H 0.5970586577 -1.0762599014 0.9495950656
C -1.1057146708 -0.5344381770 -0.2346678254
C -2.0697240858 -0.8259820217 0.9160631961
C -1.6546551944 0.5831554388 -1.1239006785
O 0.3251745972 0.9128470537 1.1681461318
H 3.5122184103 0.0006135016 -1.0829006220
H 3.0120166258 -0.9615284087 0.3163423351
H 2.9439202486 0.8069251647 0.3833857021
H 1.1537821067 0.8063860397 -1.3839174957
H 1.2479604085 -0.9487669680 -1.4931896812
H -1.0120231433 -1.4450216486 -0.8426278285
H -3.0451685300 -1.1431009810 0.5324805901
H -1.6864996483 -1.6206520046 1.5659804164
H -2.2275175916 0.0674791164 1.5299997656
H -1.7377435973 1.5253060895 -0.5684493543
H -2.6583901217 0.3252212711 -1.4770776830
H -1.0287104453 0.7582028381 -2.0038837452
H 0.1924322576 1.6925590376 0.6118756031
21
CONF13
C 2.7855773249 -0.0499576336 -0.2740077467
C 1.3517329100 -0.0468080160 -0.7989051543
C 0.3134983690 -0.2559946791 0.2933380120
H 0.6155070435 -1.1242087985 0.9021986682
C -1.1015676150 -0.5364301471 -0.2406333716
C -2.0791150096 -0.7862631184 0.9104312559
C -1.6261336633 0.5657921907 -1.1617229823
O 0.3462056615 0.9240598254 1.1334675917
H 3.5008624654 0.0851885523 -1.0914996500
H 3.0185642786 -0.9989390706 0.2218561617
H 2.9497865403 0.7565693234 0.4471413402
H 1.1447222281 0.9007997842 -1.3111061385
H 1.2275452510 -0.8432243113 -1.5423789159
H -1.0169899042 -1.4657662939 -0.8212934148
H -1.7000847339 -1.5476407081 1.6018830669
H -2.2655449476 0.1322689951 1.4800997455
H -3.0454250100 -1.1297525562 0.5273987602
H -1.6525164156 1.5301474541 -0.6422317644
H -2.6465304013 0.3352162667 -1.4850413076
H -1.0117797719 0.6787666624 -2.0597350497
H -0.1881819708 0.7419321471 1.9165342675
21
CONF16
C 2.1859013870 -0.9259840175 -0.8032413874
C 1.5956955168 0.3764721365 -0.2714146671
C 0.3633857764 0.1767004898 0.6018736857
H 0.6580295577 -0.4027292372 1.4926801757
C -0.7929728922 -0.5779873176 -0.0751752247
C -1.9737058727 -0.7423404176 0.8855778154
C -1.2457938850 0.0673508244 -1.3848617370
O -0.0361866695 1.5028920361 1.0259763060
H 1.5145432671 -1.4183384614 -1.5134559673
H 2.3897265695 -1.6305485658 0.0111392416
H 3.1306867627 -0.7341183188 -1.3208028522
H 2.3470225178 0.8993097734 0.3325003940
H 1.3421385806 1.0443390408 -1.1037830681
H -0.4060124421 -1.5817444547 -0.2962873323
H -2.7308809618 -1.4045518719 0.4536172754
H -1.6555267514 -1.1728034661 1.8420623423
H -2.4652458081 0.2174872626 1.0872975008
H -2.0828882143 -0.4938209249 -1.8131506681
H -0.4457032558 0.0909227773 -2.1311633384
H -1.5856922245 1.0955745271 -1.2179985360
H -0.7736058556 1.4055995757 1.6415523506
21
CONF14
C 2.7946230113 -0.0855798964 -0.2762597871
C 1.3645454538 -0.1166285368 -0.8115459000
C 0.3169232095 -0.2613688550 0.2890229726
H 0.5933411438 -1.1240063099 0.9181372392
C -1.1018241180 -0.5118876259 -0.2344901688
C -2.0766809855 -0.7638067832 0.9176009989
C -1.6210027717 0.6043964148 -1.1436003312
O 0.2787014565 0.9201944931 1.1273028948
H 2.9686463692 0.7767836145 0.3775730701
H 3.5165981860 -0.0167208566 -1.0958086754
H 3.0198154216 -0.9932954772 0.2947288333
H 1.1618224806 0.7950644647 -1.3856216179
H 1.2516443945 -0.9632784946 -1.5006808467
H -1.0316644302 -1.4334895922 -0.8280892422
H -2.2358853569 0.1462953649 1.5052803616
H -3.0501898447 -1.0858889475 0.5336124448
H -1.7044832671 -1.5428936450 1.5923849877
H -1.6735775560 1.5583855212 -0.6080950260
H -2.6312970096 0.3640226237 -1.4910770416
H -0.9920876372 0.7427874156 -2.0278338800
H 1.1546368881 1.0289326466 1.5179511342
21
CONF15
C 2.7260987287 -0.3460211843 0.2305407883
C 1.3305203214 -0.7383854123 -0.2508462630
C 0.2340518400 0.2077401561 0.2352143165
H 0.1904838524 0.1652757345 1.3373035318
C -1.1563471340 -0.1217994057 -0.3175957036
C -1.5502785307 -1.5701230032 -0.0188622057
C -2.2123543729 0.8309066972 0.2483483448
O 0.5252278172 1.5703652022 -0.1643576832
H 3.4612172416 -1.1021568697 -0.0616557317
H 2.7551884848 -0.2578984718 1.3229009272
H 3.0570997154 0.6063277691 -0.1972670181
H 1.3050393362 -0.7790920463 -1.3481125471
H 1.1025984187 -1.7449841683 0.1148232172
H -1.1090563495 0.0109924578 -1.4084663278
H -2.5893268574 -1.7435363450 -0.3166523912
H -0.9284430013 -2.2921151942 -0.5547361609
H -1.4721310560 -1.7816335608 1.0546888442
H -1.9955846768 1.8751019749 0.0103192205
H -2.2677842880 0.7342851252 1.3396970530
H -3.2001726131 0.5915306612 -0.1586281351
H 1.3472095877 1.8323659415 0.2686237213
21
CONF12
C 2.5806965694 -0.2226953918 0.6601016495
C 1.1262477243 -0.6340535340 0.4389610980
C 0.2358326335 0.5297771578 0.0137588426
H 0.3622599911 1.3511486403 0.7379548271
C -1.2607696948 0.2020418222 -0.0611972891
C -1.5732307922 -1.0033409063 -0.9497762513
C -1.8555253756 0.0140035409 1.3351686107
O 0.6205302806 1.0186313591 -1.2981740206
H 3.1734152265 -1.0683830211 1.0223221768
H 2.6527744380 0.5802022379 1.4026321023
H 3.0531750724 0.1279530283 -0.2646643384
H 1.0718627648 -1.4224813429 -0.3209951400
H 0.7263016521 -1.0560044370 1.3686970539
H -1.7327545477 1.0881277480 -0.5080292398
H -2.6551843292 -1.0964212806 -1.0908820270
H -1.1139057634 -0.9128592194 -1.9390693267
H -1.2199494791 -1.9341798397 -0.4928348195
H -1.6363067354 0.8698208192 1.9829117807
H -1.4642870521 -0.8877791552 1.8183696633
H -2.9432877575 -0.0920492841 1.2725408808
H 1.5366287341 1.3176329186 -1.2391388130
21
CONF8
C 2.5735202487 -0.1756623252 0.6764512851
C 1.1358435353 -0.6127419905 0.4042294330
C 0.2291590273 0.5401248272 -0.0018628410
H 0.3547600792 1.3590490322 0.7259051637
C -1.2691892264 0.1940636108 -0.0602250006
C -1.5712043950 -1.0247838962 -0.9318873372
C -1.8548719773 0.0229722053 1.3421967404
O 0.6953029148 0.9994357648 -1.2945681896
H 3.1859184164 -1.0250209042 0.9957268234
H 2.6078773132 0.5795684956 1.4698365375
H 3.0393689824 0.2527788518 -0.2161614845
H 1.1179443145 -1.3732633970 -0.3860172368
H 0.7193436484 -1.0799465046 1.3036286757
H -1.7553732757 1.0698624351 -0.5161344577
H -2.6522320604 -1.1421188441 -1.0601329339
H -1.1238932436 -0.9326779907 -1.9268545454
H -1.1924892143 -1.9435342724 -0.4708365466
H -2.9423861740 -0.0931021188 1.2893246822
H -1.6391113697 0.8910725929 1.9750700387
H -1.4524919006 -0.8675196189 1.8375037845
H 0.1665750016 1.7723758424 -1.5324628437
21
CONF3
C 2.5660363548 -0.1606281991 0.6722270535
C 1.1257691603 -0.6044816831 0.4308687958
C 0.2192100439 0.5323451554 -0.0303975581
H 0.3495029602 1.3872856221 0.6466401683
C -1.2811157665 0.1899477184 -0.0642814076
C -1.5986001649 -1.0345375498 -0.9232492294
C -1.8492095765 0.0256932832 1.3464761859
O 0.6537003737 1.0338711861 -1.3206348701
H 3.0187740580 0.2436620364 -0.2384176954
H 3.1838855519 -1.0004435481 1.0058164703
H 2.6105586493 0.6159262563 1.4439841348
H 1.1007677214 -1.4032055376 -0.3222999812
H 0.7157177639 -1.0315069305 1.3536373768
H -1.7671703896 1.0635026976 -0.5204952258
H -1.1775554088 -0.9527505475 -1.9318580574
H -1.2119806301 -1.9520737948 -0.4662206529
H -2.6823349676 -1.1504219662 -1.0296528099
H -2.9400540339 -0.0626000920 1.3099777002
H -1.6020345398 0.8854469571 1.9793487777
H -1.4623524016 -0.8766288585 1.8323237829
H 0.6947129192 0.2778461911 -1.9222082826
21
CONF11
C 2.1876242014 -0.9536949729 -0.7991575767
C 1.6058528975 0.3554707198 -0.2723157103
C 0.3660501701 0.1656401762 0.5993202185
H 0.6509802508 -0.4326985172 1.4808415734
C -0.8003246470 -0.5543545889 -0.0843328894
C -1.9734211159 -0.7416234553 0.8805203958
C -1.2591265177 0.1272469359 -1.3744094143
O -0.1139322039 1.4558264644 1.0549855414
H 2.3618318215 -1.6656504543 0.0156768136
H 3.1459542076 -0.7770137450 -1.2968762924
H 1.5209226729 -1.4297734774 -1.5247417384
H 2.3612787326 0.8700864317 0.3364668360
H 1.3638409978 1.0263697588 -1.1051876195
H -0.4209678026 -1.5522042679 -0.3397448840
H -1.6446379948 -1.1986658939 1.8209443299
H -2.4511815196 0.2148600829 1.1169584528
H -2.7344267627 -1.3922061172 0.4368403960
H -1.6013234287 1.1499655940 -1.1819853710
H -2.0964721454 -0.4258043837 -1.8133424122
H -0.4620819777 0.1697320576 -2.1235570543
H 0.6333796171 1.9021900471 1.4733162057
21
CONF1
C 2.7209362325 -0.3429012890 0.2574887630
C 1.3382394822 -0.7085849537 -0.2755575503
C 0.2338662607 0.2217571817 0.2217109281
H 0.2074242267 0.1913626900 1.3205888304
C -1.1641129008 -0.1344045882 -0.3103029546
C -1.5428678869 -1.5822847566 0.0126637311
C -2.2196363994 0.8176537381 0.2561150648
O 0.5575478661 1.5967300397 -0.0936247945
H 3.4671946169 -1.0754935258 -0.0657680864
H 2.7230112012 -0.3252420096 1.3534008567
H 3.0452443747 0.6403325574 -0.0947250382
H 1.3378895219 -0.6978603304 -1.3750930207
H 1.0979568473 -1.7317121199 0.0306862892
H -1.1328764825 -0.0158152839 -1.4045098939
H -2.5873198214 -1.7675899927 -0.2584391980
H -0.9282237218 -2.3062706318 -0.5286560717
H -1.4376614145 -1.7796717311 1.0867243622
H -2.2610084681 0.7352654612 1.3494843629
H -3.2113073656 0.5685327588 -0.1356781282
H -2.0096466264 1.8599338191 0.0022910752
H 0.6033161111 1.6580903591 -1.0581897080
21
CONF19
C 2.0963466994 -0.7084136939 -0.7838092767
C 1.4776909423 -0.4518289734 0.5890135312
C 0.1958935125 0.3773098385 0.5689327303
H -0.1956380122 0.4285854377 1.5985331689
C -0.9192882185 -0.1771135733 -0.3301359996
C -1.2761281313 -1.6106048547 0.0701559371
C -2.1677718969 0.7071235343 -0.2659925521
O 0.5834495207 1.7135288017 0.1577934513
H 3.0550748997 -1.2254247618 -0.6775388462
H 2.2817862512 0.2264697691 -1.3218840326
H 1.4519890082 -1.3346918044 -1.4085340116
H 1.2682994074 -1.4035896185 1.0881115704
H 2.1976539131 0.0769305593 1.2252114042
H -0.5485888095 -0.1785627411 -1.3640445523
H -1.5597930639 -1.6565932499 1.1288423267
H -2.1271052516 -1.9684677713 -0.5182036415
H -0.4455279803 -2.3039743334 -0.0889880112
H -1.9818345526 1.7232449165 -0.6297113939
H -2.5428511413 0.7728006877 0.7629151454
H -2.9652027673 0.2857253208 -0.8865633888
H -0.1784536924 2.2917146860 0.2845561773
21
CONF7
C 2.1059410407 -0.7701768196 -0.7356636827
C 1.4708743568 -0.4744933359 0.6215955222
C 0.2109463219 0.3934957432 0.5613962655
H -0.1788432209 0.5031918546 1.5826782205
C -0.9164464319 -0.1611418721 -0.3216061573
C -1.2680758141 -1.6001309825 0.0620379919
C -2.1603204338 0.7256202263 -0.2332065958
O 0.5549438507 1.7436145920 0.1624067544
H 2.3424595817 0.1505299782 -1.2813151531
H 1.4496148514 -1.3764277620 -1.3679857202
H 3.0430651778 -1.3208752495 -0.6073235881
H 1.2283184198 -1.4137773460 1.1314794497
H 2.1936537631 0.0459495704 1.2614946211
H -0.5580493198 -0.1536776709 -1.3619244381
H -1.5307365292 -1.6639988054 1.1252454114
H -2.1324036306 -1.9449545242 -0.5151550621
H -0.4440088719 -2.2941498073 -0.1263184917
H -1.9483957126 1.7556069820 -0.5324690397
H -2.5458280508 0.7421731906 0.7937197494
H -2.9538539858 0.3422183679 -0.8827790948
H 0.7992731179 1.7127475390 -0.7723177016
21
CONF10
C 2.0908019722 -0.7201904477 -0.7666319383
C 1.4662265201 -0.4747036447 0.6044113953
C 0.1922832352 0.3731203213 0.5866322889
H -0.2087586793 0.4111129905 1.6136809424
C -0.9182405609 -0.1457427417 -0.3301891868
C -1.2702465404 -1.5955989356 0.0073995447
C -2.1670359241 0.7334605730 -0.2291240328
O 0.4976075346 1.7243086823 0.1589109836
H 2.2809786640 0.2210906002 -1.2924786165
H 1.4460175815 -1.3360953796 -1.4013179868
H 3.0475553821 -1.2415622409 -0.6636896283
H 1.2446466263 -1.4296461663 1.0945355706
H 2.1901755566 0.0358726938 1.2537953275
H -0.5464114713 -0.1044200970 -1.3633890073
H -0.4396891599 -2.2809905953 -0.1843461965
H -1.5522776275 -1.6904751991 1.0632823138
H -2.1219210375 -1.9271469494 -0.5953441062
H -2.9544003639 0.3565929481 -0.8903057417
H -1.9630787270 1.7705057518 -0.5077030326
H -2.5581911835 0.7263807818 0.7959402681
H 1.2157404761 2.0447130312 0.7198814695
