 xtb: 6.7.1 (edcfbbe)
          04112510483D

 27 27  0     0  0            999 V2000
   -2.7651   -1.3089   -2.0337 C   0  0  0  0  0  0  0  0  0  0  0  0
   -3.4872   -0.8681   -0.7654 C   0  0  0  0  0  0  0  0  0  0  0  0
   -2.5726   -0.8897    0.4621 C   0  0  0  0  0  0  0  0  0  0  0  0
   -2.1537   -1.8958    0.5721 H   0  0  0  0  0  0  0  0  0  0  0  0
   -3.3105   -0.5123    1.7425 C   0  0  0  0  0  0  0  0  0  0  0  0
   -1.3956   -0.0240    0.2639 N   0  0  0  0  0  0  0  0  0  0  0  0
   -0.1479   -0.6462    0.2485 C   0  0  0  0  0  0  0  0  0  0  0  0
   -0.0340   -1.8502    0.4053 O   0  0  0  0  0  0  0  0  0  0  0  0
    0.9760    0.2405    0.0373 C   0  0  0  0  0  0  0  0  0  0  0  0
    0.8315    1.5787   -0.1325 C   0  0  0  0  0  0  0  0  0  0  0  0
   -0.4399    2.0690   -0.0984 N   0  0  0  0  0  0  0  0  0  0  0  0
   -1.5803    1.3258    0.0900 C   0  0  0  0  0  0  0  0  0  0  0  0
   -2.6663    1.8749    0.0954 O   0  0  0  0  0  0  0  0  0  0  0  0
    1.9176    2.5646   -0.3524 C   0  0  0  0  0  0  0  0  0  0  0  0
    2.6719   -0.6204    0.0173 Br  0  0  0  0  0  0  0  0  0  0  0  0
   -2.3045   -2.2848   -1.8913 H   0  0  0  0  0  0  0  0  0  0  0  0
   -3.4657   -1.3728   -2.8614 H   0  0  0  0  0  0  0  0  0  0  0  0
   -1.9836   -0.6009   -2.3050 H   0  0  0  0  0  0  0  0  0  0  0  0
   -3.8962    0.1343   -0.8953 H   0  0  0  0  0  0  0  0  0  0  0  0
   -4.3142   -1.5491   -0.5639 H   0  0  0  0  0  0  0  0  0  0  0  0
   -3.7490    0.4775    1.6526 H   0  0  0  0  0  0  0  0  0  0  0  0
   -4.1014   -1.2336    1.9225 H   0  0  0  0  0  0  0  0  0  0  0  0
   -2.6281   -0.5252    2.5893 H   0  0  0  0  0  0  0  0  0  0  0  0
   -0.5894    3.0658   -0.2224 H   0  0  0  0  0  0  0  0  0  0  0  0
    1.7688    3.0710   -1.3039 H   0  0  0  0  0  0  0  0  0  0  0  0
    2.8885    2.0796   -0.3579 H   0  0  0  0  0  0  0  0  0  0  0  0
    1.8997    3.3142    0.4360 H   0  0  0  0  0  0  0  0  0  0  0  0
  1  2  1  0  0  0  0
  2  3  1  0  0  0  0
  3  4  1  0  0  0  0
  3  5  1  0  0  0  0
  3  6  1  0  0  0  0
  6  7  1  0  0  0  0
  7  8  2  0  0  0  0
  7  9  1  0  0  0  0
  9 10  2  0  0  0  0
 10 11  1  0  0  0  0
  6 12  1  0  0  0  0
 11 12  1  0  0  0  0
 12 13  2  0  0  0  0
 10 14  1  0  0  0  0
  9 15  1  0  0  0  0
  1 16  1  0  0  0  0
  1 17  1  0  0  0  0
  1 18  1  0  0  0  0
  2 19  1  0  0  0  0
  2 20  1  0  0  0  0
  5 21  1  0  0  0  0
  5 22  1  0  0  0  0
  5 23  1  0  0  0  0
 11 24  1  0  0  0  0
 14 25  1  0  0  0  0
 14 26  1  0  0  0  0
 14 27  1  0  0  0  0
M  END
