  6
 
 C          0.0001338123        1.8158456178       -0.0007632223
 C          0.0001257522        0.4952599719       -0.0002991613
 Cl         1.4411135257       -0.4435803863        0.0002058499
 Cl        -1.4410601614       -0.4434358516        0.0002360538
 H         -0.9215233307        2.3680066732       -0.0001542556
 H          0.9218002918        2.3679989754       -0.0001595140
           6
        -14.36970542
 C          0.0000469684        1.8043970987       -0.0000132509
 C          0.0000266957        0.4838983669        0.0000147273
 Cl         1.4412475219       -0.4546408995       -0.0000016986
 Cl        -1.4412766078       -0.4546035320       -0.0000007432
 H         -0.9215105531        2.3567864574        0.0000078731
 H          0.9216558076        2.3567029710        0.0000604242
