 16

C      1.885000    -1.036000    -0.112000
C      2.921000    -1.631000     0.608000
C      2.878000    -1.652000     2.002000
C      1.800000    -1.079000     2.676000
C      0.764000    -0.484000     1.955000
C      0.807000    -0.463000     0.561000
N     -0.334000     0.101000     2.640000
O     -1.255000     0.630000     1.972000
O     -0.353000     0.073000     3.894000
N      3.925000    -2.254000     2.731000
H      1.919000    -1.020000    -1.198000
H      3.757000    -2.075000     0.073000
H      1.768000    -1.096000     3.763000
H      0.005000    -0.003000    -0.012000
H      3.906000    -2.221000     3.730000
H      4.715000    -2.620000     2.238000
