  16
 
 C          1.8850000000       -1.0360000000       -0.1120000000
 C          2.9210000000       -1.6310000000        0.6080000000
 C          2.8780000000       -1.6520000000        2.0020000000
 C          1.8000000000       -1.0790000000        2.6760000000
 C          0.7640000000       -0.4840000000        1.9550000000
 C          0.8070000000       -0.4630000000        0.5610000000
 N         -0.3340000000        0.1010000000        2.6400000000
 O         -1.2550000000        0.6300000000        1.9720000000
 O         -0.3530000000        0.0730000000        3.8940000000
 N          3.9250000000       -2.2540000000        2.7310000000
 H          1.9190000000       -1.0200000000       -1.1980000000
 H          3.7570000000       -2.0750000000        0.0730000000
 H          1.7680000000       -1.0960000000        3.7630000000
 H          0.0050000000       -0.0030000000       -0.0120000000
 H          3.9060000000       -2.2210000000        3.7300000000
 H          4.7150000000       -2.6200000000        2.2380000000
