 xtb: 6.7.1 (edcfbbe)
          04112511443D

 15 14  0     0  0            999 V2000
   -1.8540   -1.1230   -0.3356 C   0  0  0  0  0  0  0  0  0  0  0  0
   -1.4532    0.1166    0.4414 C   0  0  0  0  0  0  0  0  0  0  0  0
    0.0116    0.9750   -0.2459 S   0  0  0  0  0  0  0  0  0  0  0  0
    1.4070    0.1204    0.5768 C   0  0  0  0  0  0  0  0  0  0  0  0
    1.8751   -1.1247   -0.1521 C   0  0  0  0  0  0  0  0  0  0  0  0
   -2.7925   -1.5098    0.0555 H   0  0  0  0  0  0  0  0  0  0  0  0
   -1.9861   -0.8795   -1.3869 H   0  0  0  0  0  0  0  0  0  0  0  0
   -1.0992   -1.9003   -0.2525 H   0  0  0  0  0  0  0  0  0  0  0  0
   -1.2327   -0.1090    1.4841 H   0  0  0  0  0  0  0  0  0  0  0  0
   -2.2429    0.8664    0.3987 H   0  0  0  0  0  0  0  0  0  0  0  0
    2.1979    0.8697    0.6005 H   0  0  0  0  0  0  0  0  0  0  0  0
    1.0929   -0.0978    1.5968 H   0  0  0  0  0  0  0  0  0  0  0  0
    2.1017   -0.8888   -1.1889 H   0  0  0  0  0  0  0  0  0  0  0  0
    2.7741   -1.5088    0.3248 H   0  0  0  0  0  0  0  0  0  0  0  0
    1.1154   -1.9013   -0.1319 H   0  0  0  0  0  0  0  0  0  0  0  0
  1  2  1  0  0  0  0
  2  3  1  0  0  0  0
  3  4  1  0  0  0  0
  4  5  1  0  0  0  0
  1  6  1  0  0  0  0
  1  7  1  0  0  0  0
  1  8  1  0  0  0  0
  2  9  1  0  0  0  0
  2 10  1  0  0  0  0
  4 11  1  0  0  0  0
  4 12  1  0  0  0  0
  5 13  1  0  0  0  0
  5 14  1  0  0  0  0
  5 15  1  0  0  0  0
M  END
