 xtb: 6.7.1 (edcfbbe)
          04112512133D

 24 24  0     0  0            999 V2000
   -2.1698    0.0073   -1.2054 C   0  0  0  0  0  0  0  0  0  0  0  0
   -2.2066    0.3105    0.2874 C   0  0  0  0  0  0  0  0  0  0  0  0
   -1.2112   -0.4770    1.1461 C   0  0  0  0  0  0  0  0  0  0  0  0
    0.2963   -0.3077    0.8895 C   0  0  0  0  0  0  0  0  0  0  0  0
    0.8523   -1.1956   -0.2357 C   0  0  0  0  0  0  0  0  0  0  0  0
    2.1273   -0.4794   -0.6675 C   0  0  0  0  0  0  0  0  0  0  0  0
    1.7079    0.9885   -0.6608 C   0  0  0  0  0  0  0  0  0  0  0  0
    0.7842    1.1204    0.5586 C   0  0  0  0  0  0  0  0  0  0  0  0
   -2.2632   -1.0622   -1.3814 H   0  0  0  0  0  0  0  0  0  0  0  0
   -2.9978    0.5075   -1.7042 H   0  0  0  0  0  0  0  0  0  0  0  0
   -1.2461    0.3604   -1.6542 H   0  0  0  0  0  0  0  0  0  0  0  0
   -2.0635    1.3819    0.4401 H   0  0  0  0  0  0  0  0  0  0  0  0
   -3.2049    0.0705    0.6639 H   0  0  0  0  0  0  0  0  0  0  0  0
   -1.4066   -0.1962    2.1848 H   0  0  0  0  0  0  0  0  0  0  0  0
   -1.4395   -1.5419    1.0529 H   0  0  0  0  0  0  0  0  0  0  0  0
    0.7939   -0.6241    1.8135 H   0  0  0  0  0  0  0  0  0  0  0  0
    1.0399   -2.2115    0.1115 H   0  0  0  0  0  0  0  0  0  0  0  0
    0.1576   -1.2458   -1.0709 H   0  0  0  0  0  0  0  0  0  0  0  0
    2.9165   -0.6458    0.0679 H   0  0  0  0  0  0  0  0  0  0  0  0
    2.4873   -0.8081   -1.6415 H   0  0  0  0  0  0  0  0  0  0  0  0
    2.5595    1.6653   -0.6071 H   0  0  0  0  0  0  0  0  0  0  0  0
    1.1579    1.2129   -1.5763 H   0  0  0  0  0  0  0  0  0  0  0  0
    1.3312    1.5323    1.4070 H   0  0  0  0  0  0  0  0  0  0  0  0
   -0.0403    1.7958    0.3459 H   0  0  0  0  0  0  0  0  0  0  0  0
  1  2  1  0  0  0  0
  2  3  1  0  0  0  0
  3  4  1  0  0  0  0
  4  5  1  0  0  0  0
  5  6  1  0  0  0  0
  6  7  1  0  0  0  0
  4  8  1  0  0  0  0
  7  8  1  0  0  0  0
  1  9  1  0  0  0  0
  1 10  1  0  0  0  0
  1 11  1  0  0  0  0
  2 12  1  0  0  0  0
  2 13  1  0  0  0  0
  3 14  1  0  0  0  0
  3 15  1  0  0  0  0
  4 16  1  0  0  0  0
  5 17  1  0  0  0  0
  5 18  1  0  0  0  0
  6 19  1  0  0  0  0
  6 20  1  0  0  0  0
  7 21  1  0  0  0  0
  7 22  1  0  0  0  0
  8 23  1  0  0  0  0
  8 24  1  0  0  0  0
M  END
