 xtb: 6.7.1 (edcfbbe)
          04112512143D

 21 20  0     0  0            999 V2000
    1.7416   -1.1914   -0.1023 C   0  0  0  0  0  0  0  0  0  0  0  0
    1.2378    0.1259    0.4817 C   0  0  0  0  0  0  0  0  0  0  0  0
    1.0554   -0.0056    1.5624 H   0  0  0  0  0  0  0  0  0  0  0  0
   -0.0562    0.6170   -0.1757 C   0  0  0  0  0  0  0  0  0  0  0  0
   -1.2886   -0.2580    0.1089 C   0  0  0  0  0  0  0  0  0  0  0  0
   -2.4915    0.6120    0.4735 C   0  0  0  0  0  0  0  0  0  0  0  0
   -1.6394   -1.1380   -1.0903 C   0  0  0  0  0  0  0  0  0  0  0  0
    2.1911    1.1652    0.3034 O   0  0  0  0  0  0  0  0  0  0  0  0
    1.0137   -1.9781    0.0679 H   0  0  0  0  0  0  0  0  0  0  0  0
    1.9098   -1.0821   -1.1711 H   0  0  0  0  0  0  0  0  0  0  0  0
    2.6772   -1.4829    0.3710 H   0  0  0  0  0  0  0  0  0  0  0  0
   -0.2234    1.6292    0.1975 H   0  0  0  0  0  0  0  0  0  0  0  0
    0.1156    0.6970   -1.2501 H   0  0  0  0  0  0  0  0  0  0  0  0
   -1.0685   -0.9055    0.9651 H   0  0  0  0  0  0  0  0  0  0  0  0
   -2.7271    1.2903   -0.3435 H   0  0  0  0  0  0  0  0  0  0  0  0
   -2.2839    1.2017    1.3632 H   0  0  0  0  0  0  0  0  0  0  0  0
   -3.3639   -0.0075    0.6683 H   0  0  0  0  0  0  0  0  0  0  0  0
   -1.9251   -0.5179   -1.9372 H   0  0  0  0  0  0  0  0  0  0  0  0
   -0.7958   -1.7546   -1.3863 H   0  0  0  0  0  0  0  0  0  0  0  0
   -2.4746   -1.7916   -0.8484 H   0  0  0  0  0  0  0  0  0  0  0  0
    3.0461    0.8760    0.6494 H   0  0  0  0  0  0  0  0  0  0  0  0
  1  2  1  0  0  0  0
  2  3  1  0  0  0  0
  2  4  1  0  0  0  0
  4  5  1  0  0  0  0
  5  6  1  0  0  0  0
  5  7  1  0  0  0  0
  2  8  1  0  0  0  0
  1  9  1  0  0  0  0
  1 10  1  0  0  0  0
  1 11  1  0  0  0  0
  4 12  1  0  0  0  0
  4 13  1  0  0  0  0
  5 14  1  0  0  0  0
  6 15  1  0  0  0  0
  6 16  1  0  0  0  0
  6 17  1  0  0  0  0
  7 18  1  0  0  0  0
  7 19  1  0  0  0  0
  7 20  1  0  0  0  0
  8 21  1  0  0  0  0
M  END
