  16
 
 C         -0.6891915259       -1.2012464552       -0.3341099075
 C          0.6812317909       -1.2057577066        0.3341696845
 C          1.4830717803        0.0089524938       -0.1254224496
 C          0.6630114450        1.2609823613       -0.0565084983
 C         -0.6545124688        1.2653669532        0.0565728846
 C         -1.4829257719        0.0188303217        0.1253425756
 H         -1.2351550907       -2.1154690910       -0.0927324848
 H         -0.5586478021       -1.1622591491       -1.4177115536
 H          0.5509551779       -1.1657865756        1.4177685033
 H          1.2210858604       -2.1236269068        0.0928995700
 H          2.3796878609        0.1248479198        0.4891917777
 H          1.8195090435       -0.1363560790       -1.1580069691
 H          1.2122202392        2.1911302121       -0.1147398061
 H         -1.1975082507        2.1991557938        0.1149269859
 H         -1.8205396719       -0.1242144216        1.1578688957
 H         -2.3786170407        0.1407225672       -0.4894570008
          16
        -17.93143891
 C         -0.6856175647       -1.1978165857        0.3355248649
 C          0.6834391877       -1.1988682102       -0.3356090052
 C          1.4836256555        0.0179739272        0.1215128290
 C          0.6599838543        1.2674578042        0.0548578234
 C         -0.6577110657        1.2685951802       -0.0548850133
 C         -1.4835635684        0.0205656299       -0.1213805794
 H         -0.5530527874       -1.1591261152        1.4189066827
 H         -1.2297546247       -2.1132705427        0.0945315803
 H          1.2259657239       -2.1153556876       -0.0948354856
 H          0.5509908559       -1.1596936745       -1.4190206754
 H          1.8236180335       -0.1265396830        1.1530662970
 H          2.3781648896        0.1361817382       -0.4957661602
 H          1.2065384724        2.1992758144        0.1122783650
 H         -1.2026164007        2.2013370756       -0.1124417006
 H         -2.3778466452        0.1403397394        0.4959735246
 H         -1.8238724885       -0.1232497989       -1.1529417219
