 16

C     -0.765000    -1.238000    -0.163000
C      0.691000    -1.257000     0.296000
C      1.465000    -0.060000    -0.262000
C      0.695000     1.225000    -0.192000
C     -0.621000     1.277000     0.059000
C     -1.465000     0.054000     0.262000
H     -1.301000    -2.101000     0.249000
H     -0.801000    -1.333000    -1.256000
H      0.725000    -1.237000     1.393000
H      1.174000    -2.189000    -0.020000
H      2.404000     0.047000     0.293000
H      1.731000    -0.247000    -1.309000
H      1.242000     2.149000    -0.351000
H     -1.112000     2.244000     0.117000
H     -1.739000    -0.004000     1.323000
H     -2.397000     0.158000    -0.305000
