 xtb: 6.7.1 (edcfbbe)
          04112512073D

 18 17  0     0  0            999 V2000
   -1.6554    1.2063    0.7061 C   0  0  0  0  0  0  0  0  0  0  0  0
   -1.3865    0.0403   -0.2360 C   0  0  0  0  0  0  0  0  0  0  0  0
   -0.0095   -0.6089   -0.0432 C   0  0  0  0  0  0  0  0  0  0  0  0
    1.1625    0.3293   -0.3911 C   0  0  0  0  0  0  0  0  0  0  0  0
    1.8125    0.9649    0.8329 C   0  0  0  0  0  0  0  0  0  0  0  0
    0.0632   -1.8144   -0.7931 O   0  0  0  0  0  0  0  0  0  0  0  0
   -0.9888    2.0380    0.4963 H   0  0  0  0  0  0  0  0  0  0  0  0
   -2.6787    1.5519    0.5827 H   0  0  0  0  0  0  0  0  0  0  0  0
   -1.5184    0.8999    1.7403 H   0  0  0  0  0  0  0  0  0  0  0  0
   -2.1393   -0.7355   -0.0751 H   0  0  0  0  0  0  0  0  0  0  0  0
   -1.4741    0.3808   -1.2714 H   0  0  0  0  0  0  0  0  0  0  0  0
    0.0901   -0.9420    0.9962 H   0  0  0  0  0  0  0  0  0  0  0  0
    1.9172   -0.2656   -0.9113 H   0  0  0  0  0  0  0  0  0  0  0  0
    0.8202    1.1087   -1.0750 H   0  0  0  0  0  0  0  0  0  0  0  0
    1.0995    1.5636    1.3919 H   0  0  0  0  0  0  0  0  0  0  0  0
    2.2054    0.1953    1.4933 H   0  0  0  0  0  0  0  0  0  0  0  0
    2.6355    1.6061    0.5262 H   0  0  0  0  0  0  0  0  0  0  0  0
   -0.0769   -1.6082   -1.7277 H   0  0  0  0  0  0  0  0  0  0  0  0
  1  2  1  0  0  0  0
  2  3  1  0  0  0  0
  3  4  1  0  0  0  0
  4  5  1  0  0  0  0
  3  6  1  0  0  0  0
  1  7  1  0  0  0  0
  1  8  1  0  0  0  0
  1  9  1  0  0  0  0
  2 10  1  0  0  0  0
  2 11  1  0  0  0  0
  3 12  1  0  0  0  0
  4 13  1  0  0  0  0
  4 14  1  0  0  0  0
  5 15  1  0  0  0  0
  5 16  1  0  0  0  0
  5 17  1  0  0  0  0
  6 18  1  0  0  0  0
M  END
