 xtb: 6.7.1 (edcfbbe)
          04112512393D

 17 16  0     0  0            999 V2000
   -3.1069    0.7144    0.0175 C   0  0  0  0  0  0  0  0  0  0  0  0
   -1.6743    0.4919   -0.4499 C   0  0  0  0  0  0  0  0  0  0  0  0
   -0.8647   -0.2872    0.5981 C   0  0  0  0  0  0  0  0  0  0  0  0
    0.5337   -0.4969    0.0869 C   0  0  0  0  0  0  0  0  0  0  0  0
    0.9084   -1.4583   -0.5519 O   0  0  0  0  0  0  0  0  0  0  0  0
    1.3235    0.5290    0.3839 O   0  0  0  0  0  0  0  0  0  0  0  0
    2.6715    0.4870   -0.0912 C   0  0  0  0  0  0  0  0  0  0  0  0
   -3.6647    1.2641   -0.7357 H   0  0  0  0  0  0  0  0  0  0  0  0
   -3.6039   -0.2368    0.1892 H   0  0  0  0  0  0  0  0  0  0  0  0
   -3.1209    1.2840    0.9430 H   0  0  0  0  0  0  0  0  0  0  0  0
   -1.1907    1.4540   -0.6287 H   0  0  0  0  0  0  0  0  0  0  0  0
   -1.6727   -0.0680   -1.3874 H   0  0  0  0  0  0  0  0  0  0  0  0
   -1.3249   -1.2598    0.7699 H   0  0  0  0  0  0  0  0  0  0  0  0
   -0.8237    0.2814    1.5262 H   0  0  0  0  0  0  0  0  0  0  0  0
    2.6815    0.4287   -1.1801 H   0  0  0  0  0  0  0  0  0  0  0  0
    3.1820   -0.3868    0.3151 H   0  0  0  0  0  0  0  0  0  0  0  0
    3.1330    1.4059    0.2559 H   0  0  0  0  0  0  0  0  0  0  0  0
  1  2  1  0  0  0  0
  2  3  1  0  0  0  0
  3  4  1  0  0  0  0
  4  5  2  0  0  0  0
  4  6  1  0  0  0  0
  6  7  1  0  0  0  0
  1  8  1  0  0  0  0
  1  9  1  0  0  0  0
  1 10  1  0  0  0  0
  2 11  1  0  0  0  0
  2 12  1  0  0  0  0
  3 13  1  0  0  0  0
  3 14  1  0  0  0  0
  7 15  1  0  0  0  0
  7 16  1  0  0  0  0
  7 17  1  0  0  0  0
M  END
