  26
 
 C          3.4976138555       -0.0004734608       -0.0000088716
 C          2.8127259264       -1.2019687379        0.0000046240
 C          1.4174203761       -1.2262855274        0.0000170882
 C          0.6762075819       -2.4451706016        0.0000311521
 C         -0.6766217871       -2.4450217091        0.0000303618
 C         -1.4175717935       -1.2259764395        0.0000159707
 C         -2.8128719075       -1.2013587918        0.0000100315
 C         -3.4974983891        0.0002855334       -0.0000231423
 C         -2.8126085481        1.2017869907       -0.0000365797
 C         -1.4173079094        1.2261091463       -0.0000149345
 C         -0.7075746564       -0.0000112410        0.0000039735
 C          0.7076891438       -0.0001646223        0.0000080963
 C          1.4176911981        1.2257984998        0.0000009846
 C          2.8129889536        1.2011771400       -0.0000053325
 C          0.6767397357        2.4448467539       -0.0000013021
 C         -0.6760887642        2.4449919439       -0.0000083322
 H          4.5782460220       -0.0005897859       -0.0000017348
 H          3.3563404774       -2.1361258400        0.0000075392
 H          1.2281586552       -3.3748078882        0.0000469403
 H         -1.2287691980       -3.3745415335        0.0000495268
 H         -3.3566896040       -2.1353971379        0.0000140489
 H         -4.5781338621        0.0004079362       -0.0000311981
 H         -3.3562308059        2.1359373824       -0.0000470499
 H          3.3568201427        2.1352054068       -0.0000033846
 H          1.2288931384        3.3743646066       -0.0000081238
 H         -1.2280361880        3.3746313925       -0.0000208313
          26
        -39.37913954
 C          3.4975554851       -0.0000057513       -0.0000186269
 C          2.8127973854       -1.2015750257       -0.0000136886
 C          1.4174944707       -1.2260425824        0.0000018850
 C          0.6764133853       -2.4450077400        0.0000073780
 C         -0.6764159919       -2.4450050250        0.0000098036
 C         -1.4174977157       -1.2260398244        0.0000075066
 C         -2.8128004816       -1.2015729434        0.0000050916
 C         -3.4975568007       -0.0000026011       -0.0000162695
 C         -2.8127967898        1.2015728538       -0.0000211496
 C         -1.4174987873        1.2260457757       -0.0000026137
 C         -0.7076330522        0.0000020844        0.0000042144
 C          0.7076307563        0.0000016268        0.0000049730
 C          1.4175003373        1.2260414598        0.0000065663
 C          2.8128007450        1.2015708665       -0.0000032750
 C          0.6764171572        2.4450096446        0.0000163737
 C         -0.6764113505        2.4450086572        0.0000125594
 H          4.5781876578       -0.0000053107       -0.0000140589
 H          3.3565128718       -2.1356733831       -0.0000199837
 H          1.2284649056       -3.3745853812        0.0000139745
 H         -1.2284629620       -3.3745845054        0.0000224013
 H         -3.3565172491       -2.1356700453        0.0000024836
 H         -4.5781922807        0.0000030357       -0.0000217564
 H         -3.3565199823        2.1356645000       -0.0000224095
 H          3.3565310062        2.1356578905        0.0000052981
 H          1.2284701193        3.3745871538        0.0000161192
 H         -1.2284592216        3.3745884608        0.0000092521
