 26

C      5.001000     4.950000     4.035000
C      5.310000     4.561000     2.733000
C      4.455000     3.706000     2.022000
C      4.748000     3.303000     0.712000
C      3.887000     2.450000     0.017000
C      2.710000     1.978000     0.614000
C      1.835000     1.122000    -0.071000
C      0.670000     0.663000     0.540000
C      0.361000     1.052000     1.843000
C      1.215000     1.908000     2.553000
C      2.398000     2.374000     1.935000
C      3.272000     3.239000     2.640000
C      2.960000     3.635000     3.962000
C      3.835000     4.492000     4.646000
C      1.783000     3.163000     4.558000
C      0.922000     2.311000     3.863000
H      5.670000     5.613000     4.575000
H      6.226000     4.933000     2.278000
H      5.653000     3.649000     0.216000
H      4.148000     2.159000    -0.998000
H      2.055000     0.804000    -1.088000
H      0.000000     0.000000    -0.001000
H     -0.555000     0.681000     2.297000
H      3.616000     4.810000     5.663000
H      1.523000     3.454000     5.574000
H      0.018000     1.965000     4.359000
