  26
 
 C          5.0010000000        4.9500000000        4.0350000000
 C          5.3100000000        4.5610000000        2.7330000000
 C          4.4550000000        3.7060000000        2.0220000000
 C          4.7480000000        3.3030000000        0.7120000000
 C          3.8870000000        2.4500000000        0.0170000000
 C          2.7100000000        1.9780000000        0.6140000000
 C          1.8350000000        1.1220000000       -0.0710000000
 C          0.6700000000        0.6630000000        0.5400000000
 C          0.3610000000        1.0520000000        1.8430000000
 C          1.2150000000        1.9080000000        2.5530000000
 C          2.3980000000        2.3740000000        1.9350000000
 C          3.2720000000        3.2390000000        2.6400000000
 C          2.9600000000        3.6350000000        3.9620000000
 C          3.8350000000        4.4920000000        4.6460000000
 C          1.7830000000        3.1630000000        4.5580000000
 C          0.9220000000        2.3110000000        3.8630000000
 H          5.6700000000        5.6130000000        4.5750000000
 H          6.2260000000        4.9330000000        2.2780000000
 H          5.6530000000        3.6490000000        0.2160000000
 H          4.1480000000        2.1590000000       -0.9980000000
 H          2.0550000000        0.8040000000       -1.0880000000
 H          0.0000000000        0.0000000000       -0.0010000000
 H         -0.5550000000        0.6810000000        2.2970000000
 H          3.6160000000        4.8100000000        5.6630000000
 H          1.5230000000        3.4540000000        5.5740000000
 H          0.0180000000        1.9650000000        4.3590000000
