  30
 
 C          5.7671446411        0.2932097303       -0.0015988001
 C          4.4838810592       -0.5281933590       -0.0012203110
 C          3.2400786341        0.3571953169       -0.0057613647
 C          1.9524928876       -0.4628977781        0.0000638924
 C          0.7062012194        0.4188488754        0.0061603445
 C         -0.5781830317       -0.4066228229        0.0015101825
 C         -1.8262198001        0.4724569051        0.0035709285
 C         -3.1049744640       -0.3586562717       -0.0014486342
 C         -4.3549959258        0.5143972510        0.0030356090
 O         -5.4883673426       -0.3272411459       -0.0024308962
 H          6.6389189850       -0.3571112892        0.0007398689
 H          5.8141675840        0.9271492822       -0.8845479323
 H          5.8121268550        0.9306875040        0.8789071341
 H          4.4647840323       -1.1705882970        0.8822069274
 H          4.4674743187       -1.1761974444       -0.8806144235
 H          3.2579419210        1.0081909169        0.8717408013
 H          3.2566436031        0.9975404687       -0.8910848777
 H          1.9406237017       -1.1090790169        0.8811461266
 H          1.9324816327       -1.1086483544       -0.8811809052
 H          0.7211126027        1.0591182296        0.8914988463
 H          0.7202094129        1.0702318586       -0.8710487702
 H         -0.5931939685       -1.0557053050        0.8798907542
 H         -0.5912879542       -1.0484257720       -0.8822284194
 H         -1.8145085022        1.1148589620        0.8875572327
 H         -1.8122062352        1.1217455574       -0.8753348324
 H         -3.1344926280       -0.9972477480       -0.8856659024
 H         -3.1350854331       -1.0071466828        0.8755098208
 H         -4.3569121739        1.1553392418        0.8974324506
 H         -4.3559631942        1.1658853140       -0.8836897909
 H         -6.2846064474        0.2132660684       -0.0018800893
          30
        -33.54494879
 C          5.6120769603        0.5331590564       -0.0930196751
 C          4.3929208643       -0.2993441184        0.2840052367
 C          3.0918378348        0.3573751955       -0.1711242813
 C          1.8670305325       -0.4719274802        0.2065653800
 C          0.5647588142        0.1823694455       -0.2483861870
 C         -0.6576707977       -0.6474658869        0.1359975825
 C         -1.9598615622        0.0054259928       -0.3188321440
 C         -3.1826426614       -0.8286447542        0.0570089318
 C         -4.4880373330       -0.1225667510       -0.3125823924
 O         -4.6639292452        1.0994410801        0.3635934976
 H          6.5263979998        0.0473455320        0.2399648384
 H          5.6658465685        0.6635574770       -1.1718008547
 H          5.5590775508        1.5174902971        0.3673830480
 H          4.3678248558       -0.4352762599        1.3678153265
 H          4.4748178418       -1.2893872265       -0.1707284999
 H          3.0106080812        1.3481795991        0.2823321151
 H          3.1163079155        0.4923105672       -1.2551462722
 H          1.8435273846       -0.6064772674        1.2908400760
 H          1.9495419487       -1.4633019314       -0.2457771890
 H          0.4826614311        1.1749099639        0.2007160973
 H          0.5857392260        0.3127158278       -1.3328455675
 H         -0.6762248811       -0.7784750146        1.2209490317
 H         -0.5756436647       -1.6403439060       -0.3133152582
 H         -2.0520091042        0.9949518368        0.1338379001
 H         -1.9398696927        0.1407559235       -1.4023962918
 H         -3.1489652964       -1.7922936309       -0.4547313784
 H         -3.1744400991       -1.0226732783        1.1342299051
 H         -4.4917925264        0.1321713146       -1.3747737122
 H         -5.3382820753       -0.7929021459       -0.1135862397
 H         -4.5991792203        0.9362619180        1.3114855717
