 30

C     -1.871000     1.843000     4.115000
C     -2.327000     1.911000     2.665000
C     -1.972000     3.256000     2.032000
C     -2.411000     3.376000     0.569000
C     -2.082000     4.704000    -0.120000
C     -2.544000     4.764000    -1.578000
C     -2.191000     6.110000    -2.216000
C     -2.652000     6.171000    -3.675000
C     -2.311000     7.503000    -4.332000
O     -2.760000     7.508000    -5.679000
H     -2.134000     0.874000     4.550000
H     -0.786000     1.966000     4.191000
H     -2.349000     2.625000     4.713000
H     -3.410000     1.748000     2.632000
H     -1.856000     1.097000     2.102000
H     -2.405000     4.072000     2.623000
H     -0.884000     3.394000     2.071000
H     -3.495000     3.215000     0.510000
H     -1.949000     2.558000     0.002000
H     -2.572000     5.507000     0.444000
H     -1.006000     4.901000    -0.062000
H     -3.628000     4.608000    -1.627000
H     -2.072000     3.961000    -2.155000
H     -2.663000     6.921000    -1.648000
H     -1.106000     6.265000    -2.160000
H     -2.172000     5.359000    -4.233000
H     -3.736000     6.015000    -3.725000
H     -2.809000     8.321000    -3.801000
H     -1.231000     7.682000    -4.318000
H     -2.520000     8.372000    -6.052000
