  30
 
 C         -1.8710000000        1.8430000000        4.1150000000
 C         -2.3270000000        1.9110000000        2.6650000000
 C         -1.9720000000        3.2560000000        2.0320000000
 C         -2.4110000000        3.3760000000        0.5690000000
 C         -2.0820000000        4.7040000000       -0.1200000000
 C         -2.5440000000        4.7640000000       -1.5780000000
 C         -2.1910000000        6.1100000000       -2.2160000000
 C         -2.6520000000        6.1710000000       -3.6750000000
 C         -2.3110000000        7.5030000000       -4.3320000000
 O         -2.7600000000        7.5080000000       -5.6790000000
 H         -2.1340000000        0.8740000000        4.5500000000
 H         -0.7860000000        1.9660000000        4.1910000000
 H         -2.3490000000        2.6250000000        4.7130000000
 H         -3.4100000000        1.7480000000        2.6320000000
 H         -1.8560000000        1.0970000000        2.1020000000
 H         -2.4050000000        4.0720000000        2.6230000000
 H         -0.8840000000        3.3940000000        2.0710000000
 H         -3.4950000000        3.2150000000        0.5100000000
 H         -1.9490000000        2.5580000000        0.0020000000
 H         -2.5720000000        5.5070000000        0.4440000000
 H         -1.0060000000        4.9010000000       -0.0620000000
 H         -3.6280000000        4.6080000000       -1.6270000000
 H         -2.0720000000        3.9610000000       -2.1550000000
 H         -2.6630000000        6.9210000000       -1.6480000000
 H         -1.1060000000        6.2650000000       -2.1600000000
 H         -2.1720000000        5.3590000000       -4.2330000000
 H         -3.7360000000        6.0150000000       -3.7250000000
 H         -2.8090000000        8.3210000000       -3.8010000000
 H         -1.2310000000        7.6820000000       -4.3180000000
 H         -2.5200000000        8.3720000000       -6.0520000000
