14
 xtb: 6.7.1 (edcfbbe)
C           -1.01936555123814       -0.61927280481463       -0.11317583668512
C            0.04367261972687        0.27633020600585        0.50423118400874
C            1.39147020054862       -0.40086683460176        0.60687235173185
O            1.80735945101620       -0.84926017858826       -0.69473442722909
O            0.19467320957395        1.48468745251898       -0.26262750897406
O           -2.28843771229094        0.05557230324110       -0.17445089211413
H           -1.09723080405675       -1.55001536574134        0.46500872669665
H           -0.76073982344855       -0.86436434530904       -1.14660716768931
H           -0.26730586990787        0.52663825054786        1.53255047896296
H            1.30326013895236       -1.24885771555573        1.30015886333041
H            2.11951961522446        0.30994097563770        1.01994975492995
H            2.70118758552175       -1.20091183179766       -0.60215702844439
H           -0.69985624419844        1.80717300699817       -0.44375347999274
H           -2.58196996235739        0.20277750774144        0.73504516385759
