 xtb: 6.7.1 (edcfbbe)
          04112512313D

 18 17  0     0  0            999 V2000
   -2.2391    0.8868    0.1776 C   0  0  0  0  0  0  0  0  0  0  0  0
   -0.8414    0.6949   -0.4248 C   0  0  0  0  0  0  0  0  0  0  0  0
   -0.0260   -0.4013    0.2701 C   0  0  0  0  0  0  0  0  0  0  0  0
   -0.0379   -0.2069    1.3496 H   0  0  0  0  0  0  0  0  0  0  0  0
   -0.6027   -1.7902    0.0126 C   0  0  0  0  0  0  0  0  0  0  0  0
    1.4335   -0.3524   -0.2036 C   0  0  0  0  0  0  0  0  0  0  0  0
    2.0848    0.8628    0.0997 O   0  0  0  0  0  0  0  0  0  0  0  0
   -3.0114    0.5185   -0.4919 H   0  0  0  0  0  0  0  0  0  0  0  0
   -2.3323    0.3543    1.1209 H   0  0  0  0  0  0  0  0  0  0  0  0
   -2.4381    1.9375    0.3702 H   0  0  0  0  0  0  0  0  0  0  0  0
   -0.2751    1.6257   -0.3547 H   0  0  0  0  0  0  0  0  0  0  0  0
   -0.9211    0.4489   -1.4853 H   0  0  0  0  0  0  0  0  0  0  0  0
   -1.6436   -1.8330    0.3194 H   0  0  0  0  0  0  0  0  0  0  0  0
   -0.0482   -2.5431    0.5681 H   0  0  0  0  0  0  0  0  0  0  0  0
   -0.5444   -2.0315   -1.0462 H   0  0  0  0  0  0  0  0  0  0  0  0
    1.4737   -0.4372   -1.2927 H   0  0  0  0  0  0  0  0  0  0  0  0
    1.9906   -1.1960    0.2268 H   0  0  0  0  0  0  0  0  0  0  0  0
    2.1147    0.9704    1.0606 H   0  0  0  0  0  0  0  0  0  0  0  0
  1  2  1  0  0  0  0
  2  3  1  0  0  0  0
  3  4  1  0  0  0  0
  3  5  1  0  0  0  0
  3  6  1  0  0  0  0
  6  7  1  0  0  0  0
  1  8  1  0  0  0  0
  1  9  1  0  0  0  0
  1 10  1  0  0  0  0
  2 11  1  0  0  0  0
  2 12  1  0  0  0  0
  5 13  1  0  0  0  0
  5 14  1  0  0  0  0
  5 15  1  0  0  0  0
  6 16  1  0  0  0  0
  6 17  1  0  0  0  0
  7 18  1  0  0  0  0
M  END
