 xtb: 6.7.1 (edcfbbe)
          04112512153D

 21 20  0     0  0            999 V2000
    1.9655   -1.0373    0.2258 C   0  0  0  0  0  0  0  0  0  0  0  0
    1.2400    0.1234    0.9023 C   0  0  0  0  0  0  0  0  0  0  0  0
    0.1788    0.8329    0.0386 C   0  0  0  0  0  0  0  0  0  0  0  0
   -0.0458    1.7909    0.5432 H   0  0  0  0  0  0  0  0  0  0  0  0
   -1.1824    0.1282   -0.1349 C   0  0  0  0  0  0  0  0  0  0  0  0
   -1.0954   -1.2346   -0.8161 C   0  0  0  0  0  0  0  0  0  0  0  0
   -1.9350    0.0222    1.1887 C   0  0  0  0  0  0  0  0  0  0  0  0
    0.6682    1.1149   -1.2631 O   0  0  0  0  0  0  0  0  0  0  0  0
    1.3693   -1.9432    0.2323 H   0  0  0  0  0  0  0  0  0  0  0  0
    2.8974   -1.2423    0.7475 H   0  0  0  0  0  0  0  0  0  0  0  0
    2.1943   -0.7888   -0.8075 H   0  0  0  0  0  0  0  0  0  0  0  0
    0.7711   -0.2104    1.8270 H   0  0  0  0  0  0  0  0  0  0  0  0
    1.9839    0.8787    1.1722 H   0  0  0  0  0  0  0  0  0  0  0  0
   -1.7467    0.7920   -0.8015 H   0  0  0  0  0  0  0  0  0  0  0  0
   -2.0829   -1.5349   -1.1594 H   0  0  0  0  0  0  0  0  0  0  0  0
   -0.4323   -1.1809   -1.6746 H   0  0  0  0  0  0  0  0  0  0  0  0
   -0.7333   -1.9920   -0.1272 H   0  0  0  0  0  0  0  0  0  0  0  0
   -1.4384   -0.6712    1.8627 H   0  0  0  0  0  0  0  0  0  0  0  0
   -2.9421   -0.3443    1.0082 H   0  0  0  0  0  0  0  0  0  0  0  0
   -2.0030    0.9922    1.6759 H   0  0  0  0  0  0  0  0  0  0  0  0
    1.4752    1.6409   -1.1855 H   0  0  0  0  0  0  0  0  0  0  0  0
  1  2  1  0  0  0  0
  2  3  1  0  0  0  0
  3  4  1  0  0  0  0
  3  5  1  0  0  0  0
  5  6  1  0  0  0  0
  5  7  1  0  0  0  0
  3  8  1  0  0  0  0
  1  9  1  0  0  0  0
  1 10  1  0  0  0  0
  1 11  1  0  0  0  0
  2 12  1  0  0  0  0
  2 13  1  0  0  0  0
  5 14  1  0  0  0  0
  6 15  1  0  0  0  0
  6 16  1  0  0  0  0
  6 17  1  0  0  0  0
  7 18  1  0  0  0  0
  7 19  1  0  0  0  0
  7 20  1  0  0  0  0
  8 21  1  0  0  0  0
M  END
