17
 xtb: 6.7.1 (edcfbbe)
C           -2.15585824396714        0.80926891810011       -0.80426006115931
C           -1.82099091998678        0.48763582460754        0.64833382923539
C           -0.90199444716299       -0.73861704282458        0.78493833870733
C            0.38044566073323       -0.56214909294108        0.02382141654063
O            0.71605616757301       -1.20875317798380       -0.95631877193417
O            1.13714897031764        0.42503956220915        0.54206435281442
C            2.38258259934896        0.69988192104227       -0.14907459109176
H           -2.62385248623905       -0.04877374321037       -1.29931619646459
H           -2.84766817987145        1.65468938776659       -0.86726994459018
H           -1.25656186282890        1.07443091585789       -1.37283389197382
H           -2.73902317246035        0.27637674441447        1.20677491236158
H           -1.34777103169324        1.35169118928397        1.12660313324598
H           -1.39635401997588       -1.63071047597644        0.39288723826403
H           -0.66023614733515       -0.90582608633809        1.84009714349691
H            2.84941122340199        1.51090646394755        0.40891625663851
H            2.18172837768495        1.01098915357338       -1.17733026237896
H            3.02250494550051       -0.18588601664840       -0.14190209128908
