  20
 
 C         -2.5189126917        0.7344234215        0.0129935616
 C         -1.2129101085       -0.0082593900        0.0205010526
 C         -1.1937240117       -1.3922995631        0.0599838592
 C          0.0002910955       -2.0898759309        0.0757497830
 C          1.1944743840       -1.3925904704        0.0599489090
 C          1.2140097889       -0.0085550326        0.0204584844
 C          0.0006436545        0.6939933733       -0.0085036242
 N          0.0007457040        2.0818478709        0.0110995867
 C          2.5202612562        0.7337348035        0.0128929735
 H         -2.6381434072        1.3126036774       -0.9058743414
 H         -3.3496024457        0.0364026959        0.0808266256
 H         -2.5761692159        1.4205023708        0.8580313647
 H         -2.1304936054       -1.9313227830        0.0788686796
 H          0.0001713783       -3.1690193003        0.1046429392
 H          2.1311097105       -1.9318602820        0.0788627305
 H         -0.8403845602        2.5176796313       -0.3307571463
 H          0.8424623711        2.5175149072       -0.3295353871
 H          2.6397351447        1.3116657509       -0.9060003327
 H          2.5778568525        1.4198707501        0.8578150882
 H          3.3506476542        0.0354941228        0.0808326074
          20
        -25.65474669
 C         -2.5198490513        0.7344777265        0.0071820887
 C         -1.2135058221       -0.0076582280       -0.0031724008
 C         -1.1942182606       -1.3923342207       -0.0004543886
 C         -0.0001439161       -2.0898715747       -0.0030622863
 C          1.1940568133       -1.3925025832       -0.0008978241
 C          1.2134909880       -0.0078501259       -0.0033050656
 C          0.0000377378        0.6950048257       -0.0127905421
 N          0.0003094497        2.0820982754        0.0444600558
 C          2.5198423664        0.7342258783        0.0074645482
 H         -2.6381696246        1.3356820956       -0.8967655253
 H         -3.3500130030        0.0346108226        0.0551912103
 H         -2.5789612892        1.3986827494        0.8693334494
 H         -2.1309316279       -1.9316698266        0.0038106907
 H         -0.0001960968       -3.1693959857       -0.0025011818
 H          2.1306878309       -1.9319812383        0.0031340943
 H         -0.8415212054        2.5263386466       -0.2844114191
 H          0.8412228109        2.5261629986       -0.2869758139
 H          2.5778776743        1.3996809924        0.8687197405
 H          3.3499346661        0.0344215304        0.0574771007
 H          2.6392151636        1.3341348418       -0.8971907596
