 20

C      1.960000    -1.027000    -1.605000
C      1.885000    -1.036000    -0.112000
C      2.921000    -1.631000     0.608000
C      2.878000    -1.652000     2.002000
C      1.800000    -1.079000     2.676000
C      0.764000    -0.484000     1.955000
C      0.807000    -0.463000     0.561000
N     -0.242000     0.142000    -0.170000
C     -0.378000     0.123000     2.704000
H      2.475000    -0.125000    -1.948000
H      2.498000    -1.906000    -1.975000
H      0.958000    -1.052000    -2.046000
H      3.766000    -2.080000     0.093000
H      3.685000    -2.114000     2.563000
H      1.776000    -1.101000     3.762000
H     -0.174000     0.191000    -1.164000
H     -0.982000     0.591000     0.328000
H     -0.171000     1.177000     2.922000
H     -1.308000     0.061000     2.126000
H     -0.554000    -0.403000     3.650000
