  20
 
 C          1.9600000000       -1.0270000000       -1.6050000000
 C          1.8850000000       -1.0360000000       -0.1120000000
 C          2.9210000000       -1.6310000000        0.6080000000
 C          2.8780000000       -1.6520000000        2.0020000000
 C          1.8000000000       -1.0790000000        2.6760000000
 C          0.7640000000       -0.4840000000        1.9550000000
 C          0.8070000000       -0.4630000000        0.5610000000
 N         -0.2420000000        0.1420000000       -0.1700000000
 C         -0.3780000000        0.1230000000        2.7040000000
 H          2.4750000000       -0.1250000000       -1.9480000000
 H          2.4980000000       -1.9060000000       -1.9750000000
 H          0.9580000000       -1.0520000000       -2.0460000000
 H          3.7660000000       -2.0800000000        0.0930000000
 H          3.6850000000       -2.1140000000        2.5630000000
 H          1.7760000000       -1.1010000000        3.7620000000
 H         -0.1740000000        0.1910000000       -1.1640000000
 H         -0.9820000000        0.5910000000        0.3280000000
 H         -0.1710000000        1.1770000000        2.9220000000
 H         -1.3080000000        0.0610000000        2.1260000000
 H         -0.5540000000       -0.4030000000        3.6500000000
