 xtb: 6.7.1 (edcfbbe)
          04112510483D

 18 17  0     0  0            999 V2000
   -2.7472   -0.0133    0.0276 C   0  0  0  0  0  0  0  0  0  0  0  0
   -1.3172   -0.0542   -0.4965 C   0  0  0  0  0  0  0  0  0  0  0  0
   -0.2968    0.1216    0.6349 C   0  0  0  0  0  0  0  0  0  0  0  0
    1.1143    0.0997    0.1137 C   0  0  0  0  0  0  0  0  0  0  0  0
    1.7757    1.2144   -0.1550 C   0  0  0  0  0  0  0  0  0  0  0  0
    1.7108   -1.2580   -0.0975 C   0  0  0  0  0  0  0  0  0  0  0  0
   -2.9472    0.9378    0.5160 H   0  0  0  0  0  0  0  0  0  0  0  0
   -2.9114   -0.8100    0.7498 H   0  0  0  0  0  0  0  0  0  0  0  0
   -3.4556   -0.1366   -0.7880 H   0  0  0  0  0  0  0  0  0  0  0  0
   -1.1442   -1.0071   -1.0003 H   0  0  0  0  0  0  0  0  0  0  0  0
   -1.1714    0.7407   -1.2312 H   0  0  0  0  0  0  0  0  0  0  0  0
   -0.4901    1.0728    1.1344 H   0  0  0  0  0  0  0  0  0  0  0  0
   -0.4332   -0.6810    1.3629 H   0  0  0  0  0  0  0  0  0  0  0  0
    2.7788    1.2032   -0.5472 H   0  0  0  0  0  0  0  0  0  0  0  0
    1.3408    2.1865    0.0071 H   0  0  0  0  0  0  0  0  0  0  0  0
    1.0724   -1.8563   -0.7452 H   0  0  0  0  0  0  0  0  0  0  0  0
    2.6976   -1.1866   -0.5464 H   0  0  0  0  0  0  0  0  0  0  0  0
    1.7963   -1.7784    0.8558 H   0  0  0  0  0  0  0  0  0  0  0  0
  1  2  1  0  0  0  0
  2  3  1  0  0  0  0
  3  4  1  0  0  0  0
  4  5  2  0  0  0  0
  4  6  1  0  0  0  0
  1  7  1  0  0  0  0
  1  8  1  0  0  0  0
  1  9  1  0  0  0  0
  2 10  1  0  0  0  0
  2 11  1  0  0  0  0
  3 12  1  0  0  0  0
  3 13  1  0  0  0  0
  5 14  1  0  0  0  0
  5 15  1  0  0  0  0
  6 16  1  0  0  0  0
  6 17  1  0  0  0  0
  6 18  1  0  0  0  0
M  END
