 xtb: 6.7.1 (edcfbbe)
          04112512143D

 21 20  0     0  0            999 V2000
    1.9424   -0.7660   -0.8241 C   0  0  0  0  0  0  0  0  0  0  0  0
    1.2045   -0.1275    0.3518 C   0  0  0  0  0  0  0  0  0  0  0  0
    0.9141   -0.9121    1.0701 H   0  0  0  0  0  0  0  0  0  0  0  0
   -0.0520    0.6396   -0.0906 C   0  0  0  0  0  0  0  0  0  0  0  0
   -1.3756   -0.0754    0.1982 C   0  0  0  0  0  0  0  0  0  0  0  0
   -2.5411    0.8650   -0.1058 C   0  0  0  0  0  0  0  0  0  0  0  0
   -1.5204   -1.3612   -0.6126 C   0  0  0  0  0  0  0  0  0  0  0  0
    2.0410    0.8070    1.0243 O   0  0  0  0  0  0  0  0  0  0  0  0
    2.3068    0.0133   -1.4897 H   0  0  0  0  0  0  0  0  0  0  0  0
    2.7901   -1.3521   -0.4743 H   0  0  0  0  0  0  0  0  0  0  0  0
    1.2750   -1.4183   -1.3774 H   0  0  0  0  0  0  0  0  0  0  0  0
   -0.0412    1.5888    0.4499 H   0  0  0  0  0  0  0  0  0  0  0  0
    0.0144    0.8668   -1.1557 H   0  0  0  0  0  0  0  0  0  0  0  0
   -1.4045   -0.3290    1.2641 H   0  0  0  0  0  0  0  0  0  0  0  0
   -2.5373    1.1425   -1.1574 H   0  0  0  0  0  0  0  0  0  0  0  0
   -2.4681    1.7721    0.4892 H   0  0  0  0  0  0  0  0  0  0  0  0
   -3.4889    0.3818    0.1189 H   0  0  0  0  0  0  0  0  0  0  0  0
   -2.4898   -1.8162   -0.4225 H   0  0  0  0  0  0  0  0  0  0  0  0
   -1.4457   -1.1468   -1.6765 H   0  0  0  0  0  0  0  0  0  0  0  0
   -0.7510   -2.0806   -0.3457 H   0  0  0  0  0  0  0  0  0  0  0  0
    2.8731    0.3766    1.2624 H   0  0  0  0  0  0  0  0  0  0  0  0
  1  2  1  0  0  0  0
  2  3  1  0  0  0  0
  2  4  1  0  0  0  0
  4  5  1  0  0  0  0
  5  6  1  0  0  0  0
  5  7  1  0  0  0  0
  2  8  1  0  0  0  0
  1  9  1  0  0  0  0
  1 10  1  0  0  0  0
  1 11  1  0  0  0  0
  4 12  1  0  0  0  0
  4 13  1  0  0  0  0
  5 14  1  0  0  0  0
  6 15  1  0  0  0  0
  6 16  1  0  0  0  0
  6 17  1  0  0  0  0
  7 18  1  0  0  0  0
  7 19  1  0  0  0  0
  7 20  1  0  0  0  0
  8 21  1  0  0  0  0
M  END
