  9
 
 C         -1.5912331914       -0.5442100061       -0.0112944899
 C         -0.6284965244        0.6451253817        0.0014363927
 C          0.7411243015        0.1956453895       -0.0025716804
 N          1.8206211362       -0.1799580458       -0.0040434520
 H         -2.6190920334       -0.1895337615        0.0072997914
 H         -1.4449220780       -1.1433995040       -0.9071322566
 H         -1.4251940683       -1.1778614919        0.8572289584
 H         -0.7863487155        1.2555569709        0.8952843559
 H         -0.7859318384        1.2744832409       -0.8792440775
           9
        -11.85133410
 C         -1.6319482665       -0.4764992463       -0.0000036462
 C         -0.6051589645        0.6579040179        0.0000027228
 C          0.7382093614        0.1355679136       -0.0000522347
 N          1.7974541294       -0.2937305421        0.0000270806
 H         -2.6385275118       -0.0650901909       -0.0001499809
 H         -1.5101091827       -1.1009429958       -0.8822647148
 H         -1.5103593771       -1.1005850091        0.8825105530
 H         -0.7289336328        1.2855624334        0.8873941865
 H         -0.7289851110        1.2856858481       -0.8872329027
