  9
 
 C          0.6420000000       -0.7480000000        0.4850000000
 C          1.1890000000       -0.1850000000        1.7560000000
 C          2.0230000000       -1.2470000000        2.3250000000
 N          2.6860000000       -2.0830000000        2.7820000000
 H         -0.0050000000       -0.0290000000       -0.0310000000
 H          1.4710000000       -0.9820000000       -0.1980000000
 H          0.0950000000       -1.6820000000        0.6580000000
 H          0.3740000000        0.0820000000        2.4370000000
 H          1.7800000000        0.7130000000        1.5530000000
