 15

C      0.917000     1.450000     0.586000
C      1.910000     0.913000    -0.422000
O      1.517000     1.324000    -1.723000
C      2.416000     0.847000    -2.716000
C      1.942000     1.318000    -4.074000
H      1.191000     1.151000     1.601000
H      0.872000     2.543000     0.539000
H     -0.091000     1.081000     0.369000
H      1.935000    -0.181000    -0.391000
H      2.913000     1.300000    -0.218000
H      3.414000     1.236000    -2.501000
H      2.438000    -0.245000    -2.673000
H      2.613000     0.968000    -4.863000
H      0.931000     0.950000    -4.280000
H      1.895000     2.412000    -4.109000
