 xtb: 6.7.1 (edcfbbe)
          04112512293D

 24 24  0     0  0            999 V2000
   -3.5538   -0.0242   -0.3435 C   0  0  0  0  0  0  0  0  0  0  0  0
   -2.2192    0.3966    0.2609 C   0  0  0  0  0  0  0  0  0  0  0  0
   -1.0994   -0.5723   -0.1144 C   0  0  0  0  0  0  0  0  0  0  0  0
    0.2415   -0.2059    0.5215 C   0  0  0  0  0  0  0  0  0  0  0  0
    1.3470   -1.2383    0.1980 C   0  0  0  0  0  0  0  0  0  0  0  0
    2.4644   -0.4636   -0.5083 C   0  0  0  0  0  0  0  0  0  0  0  0
    2.3067    0.9596    0.0166 C   0  0  0  0  0  0  0  0  0  0  0  0
    0.7921    1.1428    0.0278 C   0  0  0  0  0  0  0  0  0  0  0  0
   -4.3371    0.6778   -0.0681 H   0  0  0  0  0  0  0  0  0  0  0  0
   -3.4867   -0.0560   -1.4287 H   0  0  0  0  0  0  0  0  0  0  0  0
   -3.8378   -1.0128    0.0104 H   0  0  0  0  0  0  0  0  0  0  0  0
   -1.9662    1.3998   -0.0862 H   0  0  0  0  0  0  0  0  0  0  0  0
   -2.3098    0.4354    1.3490 H   0  0  0  0  0  0  0  0  0  0  0  0
   -1.3813   -1.5772    0.2104 H   0  0  0  0  0  0  0  0  0  0  0  0
   -0.9886   -0.5936   -1.2014 H   0  0  0  0  0  0  0  0  0  0  0  0
    0.1002   -0.1578    1.6057 H   0  0  0  0  0  0  0  0  0  0  0  0
    1.7246   -1.6844    1.1183 H   0  0  0  0  0  0  0  0  0  0  0  0
    0.9657   -2.0442   -0.4281 H   0  0  0  0  0  0  0  0  0  0  0  0
    3.4493   -0.8815   -0.3057 H   0  0  0  0  0  0  0  0  0  0  0  0
    2.3041   -0.4731   -1.5874 H   0  0  0  0  0  0  0  0  0  0  0  0
    2.7001    1.0288    1.0321 H   0  0  0  0  0  0  0  0  0  0  0  0
    2.8143    1.6974   -0.6032 H   0  0  0  0  0  0  0  0  0  0  0  0
    0.4777    1.9726    0.6587 H   0  0  0  0  0  0  0  0  0  0  0  0
    0.4433    1.3325   -0.9890 H   0  0  0  0  0  0  0  0  0  0  0  0
  1  2  1  0  0  0  0
  2  3  1  0  0  0  0
  3  4  1  0  0  0  0
  4  5  1  0  0  0  0
  5  6  1  0  0  0  0
  6  7  1  0  0  0  0
  4  8  1  0  0  0  0
  7  8  1  0  0  0  0
  1  9  1  0  0  0  0
  1 10  1  0  0  0  0
  1 11  1  0  0  0  0
  2 12  1  0  0  0  0
  2 13  1  0  0  0  0
  3 14  1  0  0  0  0
  3 15  1  0  0  0  0
  4 16  1  0  0  0  0
  5 17  1  0  0  0  0
  5 18  1  0  0  0  0
  6 19  1  0  0  0  0
  6 20  1  0  0  0  0
  7 21  1  0  0  0  0
  7 22  1  0  0  0  0
  8 23  1  0  0  0  0
  8 24  1  0  0  0  0
M  END
