 xtb: 6.7.1 (edcfbbe)
          04112512013D

 18 17  0     0  0            999 V2000
    1.9835   -1.2201   -0.2938 C   0  0  0  0  0  0  0  0  0  0  0  0
    0.8244   -0.3577    0.2051 C   0  0  0  0  0  0  0  0  0  0  0  0
    1.3410    1.0349    0.5695 C   0  0  0  0  0  0  0  0  0  0  0  0
   -0.2860   -0.2773   -0.8560 C   0  0  0  0  0  0  0  0  0  0  0  0
   -1.7008   -0.2268   -0.2702 C   0  0  0  0  0  0  0  0  0  0  0  0
   -1.9697    0.9154    0.5178 O   0  0  0  0  0  0  0  0  0  0  0  0
    1.6538   -2.2392   -0.4818 H   0  0  0  0  0  0  0  0  0  0  0  0
    2.7805   -1.2480    0.4457 H   0  0  0  0  0  0  0  0  0  0  0  0
    2.3868   -0.8115   -1.2177 H   0  0  0  0  0  0  0  0  0  0  0  0
    0.4155   -0.8332    1.1047 H   0  0  0  0  0  0  0  0  0  0  0  0
    1.8924    1.4554   -0.2692 H   0  0  0  0  0  0  0  0  0  0  0  0
    2.0101    0.9836    1.4256 H   0  0  0  0  0  0  0  0  0  0  0  0
    0.5243    1.7117    0.8057 H   0  0  0  0  0  0  0  0  0  0  0  0
   -0.2455   -1.1579   -1.4987 H   0  0  0  0  0  0  0  0  0  0  0  0
   -0.1297    0.6027   -1.4818 H   0  0  0  0  0  0  0  0  0  0  0  0
   -2.4286   -0.1870   -1.0850 H   0  0  0  0  0  0  0  0  0  0  0  0
   -1.8896   -1.1371    0.3147 H   0  0  0  0  0  0  0  0  0  0  0  0
   -1.4662    0.8510    1.3403 H   0  0  0  0  0  0  0  0  0  0  0  0
  1  2  1  0  0  0  0
  2  3  1  0  0  0  0
  2  4  1  0  0  0  0
  4  5  1  0  0  0  0
  5  6  1  0  0  0  0
  1  7  1  0  0  0  0
  1  8  1  0  0  0  0
  1  9  1  0  0  0  0
  2 10  1  0  0  0  0
  3 11  1  0  0  0  0
  3 12  1  0  0  0  0
  3 13  1  0  0  0  0
  4 14  1  0  0  0  0
  4 15  1  0  0  0  0
  5 16  1  0  0  0  0
  5 17  1  0  0  0  0
  6 18  1  0  0  0  0
M  END
