  9
 
 C         -1.1710611881       -0.2549888912       -0.0011079479
 O         -0.0013879653        0.5206223818       -0.0003212214
 C          1.1682785944       -0.2549816304        0.0013444734
 H         -2.0080149452        0.4399727371        0.0004172648
 H         -1.2258693708       -0.8948352893        0.8890795826
 H         -1.2265770667       -0.8916720430       -0.8934892737
 H          2.0051889585        0.4400036776       -0.0011023449
 H          1.2229672525       -0.8958958556       -0.8880529898
 H          1.2238099765       -0.8905076410        0.8945108257
           9
        -11.38852244
 C         -1.1694383310       -0.2440499838        0.0000034894
 O         -0.0000007556        0.5319658410       -0.0000020562
 C          1.1694378291       -0.2440450571       -0.0000004940
 H         -2.0066081805        0.4508023777        0.0004067236
 H         -1.2241784943       -0.8826683962        0.8910930887
 H         -1.2245922617       -0.8820476510       -0.8915338032
 H          1.2247630262       -0.8818394680       -0.8916555487
 H          1.2240269230       -0.8829127215        0.8909431311
 H          2.0066069624        0.4508012485        0.0007433525
