 9

C     -0.610000    -0.515000     0.748000
O      0.035000    -0.499000     2.014000
C      1.289000    -1.166000     1.969000
H     -1.569000     0.005000     0.820000
H     -0.768000    -1.549000     0.432000
H      0.024000    -0.006000     0.019000
H      1.751000    -1.131000     2.957000
H      1.930000    -0.678000     1.233000
H      1.123000    -2.204000     1.679000
