  9
 
 C          1.2704879059       -0.2480533401        0.0001909964
 C         -0.0121054118        0.5692863911       -0.0003121924
 O         -1.1084697258       -0.3209319380       -0.0000585618
 H          2.1338816041        0.4113879182        0.0002374703
 H          1.3009220292       -0.8820783026        0.8818827898
 H          1.3013764806       -0.8825310038       -0.8811538171
 H         -0.0440248354        1.2133686617       -0.8916529597
 H         -0.0442364351        1.2141571010        0.8904569659
 H         -1.9283985909        0.1826262495       -0.0004949034
           9
        -11.39433938
 C          1.2750550056       -0.2515189498        0.0157695269
 C         -0.0145918358        0.5610946414       -0.0327409448
 O         -1.1686646194       -0.2415001290        0.0563287512
 H          1.3034801032       -0.8525147283        0.9214971000
 H          1.3402759537       -0.9160619667       -0.8448926220
 H          2.1344570469        0.4130326279        0.0066478414
 H         -0.0400105833        1.1640445616       -0.9531174942
 H         -0.0682966446        1.2379416852        0.8228981617
 H         -1.1392881767       -0.9020394296       -0.6449493696
