  9
 
 C          1.0620000000       -0.2680000000       -0.0010000000
 C          1.9100000000        0.9130000000       -0.4220000000
 O          1.5170000000        1.3240000000       -1.7230000000
 H          1.3390000000       -0.6110000000        1.0000000000
 H          0.0000000000        0.0000000000       -0.0010000000
 H          1.1800000000       -1.0990000000       -0.7040000000
 H          2.9680000000        0.6360000000       -0.4450000000
 H          1.7730000000        1.7500000000        0.2690000000
 H          2.0790000000        2.0790000000       -1.9610000000
