 xtb: 6.7.1 (edcfbbe)
          04112511583D

 20 19  0     0  0            999 V2000
    2.0237   -0.2833    0.7305 C   0  0  0  0  0  0  0  0  0  0  0  0
    1.4247    0.6567   -0.3099 C   0  0  0  0  0  0  0  0  0  0  0  0
    0.2463    0.0849   -1.1044 C   0  0  0  0  0  0  0  0  0  0  0  0
   -1.0936   -0.1250   -0.3757 C   0  0  0  0  0  0  0  0  0  0  0  0
   -1.5008    1.0900    0.4548 C   0  0  0  0  0  0  0  0  0  0  0  0
   -1.1318   -1.3928    0.4768 C   0  0  0  0  0  0  0  0  0  0  0  0
    2.9799    0.1057    1.0748 H   0  0  0  0  0  0  0  0  0  0  0  0
    1.3758   -0.3848    1.5961 H   0  0  0  0  0  0  0  0  0  0  0  0
    2.1893   -1.2700    0.3040 H   0  0  0  0  0  0  0  0  0  0  0  0
    1.1297    1.5911    0.1690 H   0  0  0  0  0  0  0  0  0  0  0  0
    2.2058    0.9011   -1.0353 H   0  0  0  0  0  0  0  0  0  0  0  0
    0.0584    0.7757   -1.9314 H   0  0  0  0  0  0  0  0  0  0  0  0
    0.5511   -0.8680   -1.5445 H   0  0  0  0  0  0  0  0  0  0  0  0
   -1.8439   -0.2528   -1.1670 H   0  0  0  0  0  0  0  0  0  0  0  0
   -0.8502    1.2053    1.3180 H   0  0  0  0  0  0  0  0  0  0  0  0
   -2.5203    0.9710    0.8148 H   0  0  0  0  0  0  0  0  0  0  0  0
   -1.4522    1.9971   -0.1434 H   0  0  0  0  0  0  0  0  0  0  0  0
   -2.1514   -1.5873    0.8034 H   0  0  0  0  0  0  0  0  0  0  0  0
   -0.7881   -2.2509   -0.0960 H   0  0  0  0  0  0  0  0  0  0  0  0
   -0.5098   -1.2970    1.3608 H   0  0  0  0  0  0  0  0  0  0  0  0
  1  2  1  0  0  0  0
  2  3  1  0  0  0  0
  3  4  1  0  0  0  0
  4  5  1  0  0  0  0
  4  6  1  0  0  0  0
  1  7  1  0  0  0  0
  1  8  1  0  0  0  0
  1  9  1  0  0  0  0
  2 10  1  0  0  0  0
  2 11  1  0  0  0  0
  3 12  1  0  0  0  0
  3 13  1  0  0  0  0
  4 14  1  0  0  0  0
  5 15  1  0  0  0  0
  5 16  1  0  0  0  0
  5 17  1  0  0  0  0
  6 18  1  0  0  0  0
  6 19  1  0  0  0  0
  6 20  1  0  0  0  0
M  END
