 15

C      0.108000     0.937000     0.556000
C      0.252000     0.653000     2.042000
C      0.402000     1.943000     2.848000
C      0.547000     1.654000     4.341000
C      0.690000     2.898000     5.109000
N      0.802000     3.880000     5.717000
H      0.002000     0.007000    -0.012000
H     -0.779000     1.550000     0.372000
H      0.980000     1.476000     0.173000
H     -0.627000     0.097000     2.389000
H      1.126000     0.010000     2.203000
H     -0.471000     2.587000     2.677000
H      1.278000     2.500000     2.491000
H     -0.330000     1.103000     4.701000
H      1.421000     1.016000     4.514000
