 8

C     -0.436000     0.014000     0.639000
C      0.421000     0.203000    -0.617000
Cl     1.599000    -1.115000    -0.872000
Cl    -0.600000     0.369000    -2.075000
Cl    -1.402000    -1.488000     0.615000
Cl     0.570000     0.042000     2.116000
H     -1.145000     0.842000     0.739000
H      0.998000     1.130000    -0.543000
