 xtb: 6.7.1 (edcfbbe)
          04112511443D

 15 14  0     0  0            999 V2000
   -2.1575   -0.7767    0.3790 C   0  0  0  0  0  0  0  0  0  0  0  0
   -1.2384   -0.2103   -0.6860 C   0  0  0  0  0  0  0  0  0  0  0  0
    0.0001    0.9505   -0.0010 S   0  0  0  0  0  0  0  0  0  0  0  0
    1.2384   -0.2089    0.6866 C   0  0  0  0  0  0  0  0  0  0  0  0
    2.1573   -0.7775   -0.3776 C   0  0  0  0  0  0  0  0  0  0  0  0
   -1.5979   -1.3552    1.1108 H   0  0  0  0  0  0  0  0  0  0  0  0
   -2.6716    0.0291    0.8972 H   0  0  0  0  0  0  0  0  0  0  0  0
   -2.8967   -1.4275   -0.0822 H   0  0  0  0  0  0  0  0  0  0  0  0
   -1.7969    0.3840   -1.4077 H   0  0  0  0  0  0  0  0  0  0  0  0
   -0.6957   -0.9931   -1.2134 H   0  0  0  0  0  0  0  0  0  0  0  0
    1.7971    0.3869    1.4068 H   0  0  0  0  0  0  0  0  0  0  0  0
    0.6958   -0.9906    1.2156 H   0  0  0  0  0  0  0  0  0  0  0  0
    2.6713    0.0272   -0.8976 H   0  0  0  0  0  0  0  0  0  0  0  0
    2.8966   -1.4271    0.0850 H   0  0  0  0  0  0  0  0  0  0  0  0
    1.5977   -1.3576   -1.1081 H   0  0  0  0  0  0  0  0  0  0  0  0
  1  2  1  0  0  0  0
  2  3  1  0  0  0  0
  3  4  1  0  0  0  0
  4  5  1  0  0  0  0
  1  6  1  0  0  0  0
  1  7  1  0  0  0  0
  1  8  1  0  0  0  0
  2  9  1  0  0  0  0
  2 10  1  0  0  0  0
  4 11  1  0  0  0  0
  4 12  1  0  0  0  0
  5 13  1  0  0  0  0
  5 14  1  0  0  0  0
  5 15  1  0  0  0  0
M  END
