 13

C     -0.471000     0.291000    -0.933000
C     -1.747000     1.040000    -0.655000
O     -1.907000     2.196000    -1.042000
C     -2.808000     0.289000     0.121000
O     -3.950000     1.098000     0.314000
N     -4.996000     0.456000     1.041000
O     -4.797000    -0.703000     1.412000
O     -5.985000     1.173000     1.202000
H      0.240000     0.458000    -0.119000
H     -0.681000    -0.778000    -1.004000
H     -0.030000     0.652000    -1.866000
H     -2.412000    -0.010000     1.095000
H     -3.104000    -0.597000    -0.445000
