  21
 
 C         -3.4305881647        0.2922246771        0.2226373330
 C         -2.0469990202        0.3892945529       -0.3438394557
 O         -1.7100815280        0.0725789041       -1.4501501347
 O         -1.2016775932        0.9155555542        0.5729528777
 C          0.1558221408        0.8916395798        0.3339817484
 C          0.8534446483        2.0872411593        0.4299699157
 C          2.2205793724        2.1101038195        0.2239192268
 C          2.8963126504        0.9434781844       -0.0972039321
 C          2.2055036303       -0.2482985170       -0.1967256366
 C          0.8314168158       -0.2945528549        0.0266483931
 C          0.1117737880       -1.5902960380       -0.0233240824
 O         -0.9040609012       -1.8484437102        0.5740050610
 O          0.7328031939       -2.4918644153       -0.7903669741
 H         -3.4966689574       -0.6652613995        0.7372661195
 H         -4.1637149237        0.3177495126       -0.5773932664
 H         -3.6043015118        1.0867216946        0.9414210720
 H          0.3090644555        2.9880673225        0.6665793092
 H          2.7567941957        3.0434524654        0.3052936308
 H          3.9615465324        0.9640371774       -0.2683109710
 H          2.7215390043       -1.1638967005       -0.4389053323
 H          0.2197575522       -3.3148269115       -0.8105767546
          21
        -39.63185916
 C         -3.2099895559        1.1755137112       -0.2133178001
 C         -1.8675278590        0.8209154183        0.3494120055
 O         -1.6604307312        0.2598374326        1.3887180885
 O         -0.8855943646        1.2460415813       -0.4794161050
 C          0.4119864634        0.8379986250       -0.2547312691
 C          1.3947285742        1.8140361241       -0.1717296481
 C          2.7139433783        1.4532250669        0.0319578727
 C          3.0572170388        0.1178818801        0.1735012060
 C          2.0820328362       -0.8568607332        0.0929811574
 C          0.7510172189       -0.5140538574       -0.1329181270
 C         -0.2764459557       -1.5732237626       -0.2814483951
 O         -1.2974476103       -1.4702114153       -0.9159785054
 O          0.0615511402       -2.7064313642        0.3424698718
 H         -3.9483891338        1.2121810360        0.5814912637
 H         -3.4789966706        0.3892851579       -0.9175308573
 H         -3.1609161748        2.1189661949       -0.7482985552
 H          1.1072056295        2.8493356236       -0.2688269166
 H          3.4734763734        2.2181066673        0.0900713644
 H          4.0852361664       -0.1620442613        0.3447824661
 H          2.3378868405       -1.8998387270        0.1936383552
 H         -0.6443911672       -3.3631596958        0.2360262604
