 xtb: 6.7.1 (edcfbbe)
          04112511113D

 20 20  0     0  0            999 V2000
    1.5277   -2.2633   -0.0017 C   0  0  0  0  0  0  0  0  0  0  0  0
    1.8439   -0.8835    0.0021 O   0  0  0  0  0  0  0  0  0  0  0  0
    0.8751    0.0842    0.0010 C   0  0  0  0  0  0  0  0  0  0  0  0
    1.3830    1.3803    0.0008 C   0  0  0  0  0  0  0  0  0  0  0  0
    0.5550    2.4857    0.0000 C   0  0  0  0  0  0  0  0  0  0  0  0
   -0.8140    2.3043   -0.0007 C   0  0  0  0  0  0  0  0  0  0  0  0
   -1.3392    1.0236   -0.0006 C   0  0  0  0  0  0  0  0  0  0  0  0
   -0.5197   -0.0993    0.0004 C   0  0  0  0  0  0  0  0  0  0  0  0
   -1.0123   -1.3839    0.0009 O   0  0  0  0  0  0  0  0  0  0  0  0
   -2.4126   -1.5767   -0.0002 C   0  0  0  0  0  0  0  0  0  0  0  0
    0.9660   -2.5424   -0.8944 H   0  0  0  0  0  0  0  0  0  0  0  0
    0.9641   -2.5469    0.8884 H   0  0  0  0  0  0  0  0  0  0  0  0
    2.4939   -2.7651   -0.0020 H   0  0  0  0  0  0  0  0  0  0  0  0
    2.4563    1.4850    0.0014 H   0  0  0  0  0  0  0  0  0  0  0  0
    0.9806    3.4762   -0.0001 H   0  0  0  0  0  0  0  0  0  0  0  0
   -1.4818    3.1510   -0.0014 H   0  0  0  0  0  0  0  0  0  0  0  0
   -2.4097    0.9027   -0.0010 H   0  0  0  0  0  0  0  0  0  0  0  0
   -2.5468   -2.6563    0.0002 H   0  0  0  0  0  0  0  0  0  0  0  0
   -2.8720   -1.1506   -0.8960 H   0  0  0  0  0  0  0  0  0  0  0  0
   -2.8735   -1.1499    0.8944 H   0  0  0  0  0  0  0  0  0  0  0  0
  1  2  1  0  0  0  0
  2  3  1  0  0  0  0
  3  4  4  0  0  0  0
  4  5  4  0  0  0  0
  5  6  4  0  0  0  0
  6  7  4  0  0  0  0
  3  8  4  0  0  0  0
  7  8  4  0  0  0  0
  8  9  1  0  0  0  0
  9 10  1  0  0  0  0
  1 11  1  0  0  0  0
  1 12  1  0  0  0  0
  1 13  1  0  0  0  0
  4 14  1  0  0  0  0
  5 15  1  0  0  0  0
  6 16  1  0  0  0  0
  7 17  1  0  0  0  0
 10 18  1  0  0  0  0
 10 19  1  0  0  0  0
 10 20  1  0  0  0  0
M  END
