 xtb: 6.7.1 (edcfbbe)
          04112511313D

 18 17  0     0  0            999 V2000
    2.3761   -0.2493   -0.6659 C   0  0  0  0  0  0  0  0  0  0  0  0
    1.6062    0.2877    0.5361 C   0  0  0  0  0  0  0  0  0  0  0  0
    0.2604   -0.4104    0.7480 C   0  0  0  0  0  0  0  0  0  0  0  0
   -0.8133   -0.0567   -0.2906 C   0  0  0  0  0  0  0  0  0  0  0  0
   -0.3931   -0.1433   -1.3048 H   0  0  0  0  0  0  0  0  0  0  0  0
   -2.0092   -0.9978   -0.1758 C   0  0  0  0  0  0  0  0  0  0  0  0
   -1.3090    1.2623   -0.1100 O   0  0  0  0  0  0  0  0  0  0  0  0
    3.3407    0.2460   -0.7460 H   0  0  0  0  0  0  0  0  0  0  0  0
    1.8314   -0.0814   -1.5915 H   0  0  0  0  0  0  0  0  0  0  0  0
    2.5463   -1.3180   -0.5589 H   0  0  0  0  0  0  0  0  0  0  0  0
    2.2111    0.1403    1.4334 H   0  0  0  0  0  0  0  0  0  0  0  0
    1.4575    1.3640    0.4221 H   0  0  0  0  0  0  0  0  0  0  0  0
    0.4150   -1.4900    0.7279 H   0  0  0  0  0  0  0  0  0  0  0  0
   -0.1347   -0.1443    1.7312 H   0  0  0  0  0  0  0  0  0  0  0  0
   -1.7103   -2.0162   -0.4025 H   0  0  0  0  0  0  0  0  0  0  0  0
   -2.4143   -0.9544    0.8318 H   0  0  0  0  0  0  0  0  0  0  0  0
   -2.7839   -0.6871   -0.8715 H   0  0  0  0  0  0  0  0  0  0  0  0
   -0.5724    1.8862   -0.1456 H   0  0  0  0  0  0  0  0  0  0  0  0
  1  2  1  0  0  0  0
  2  3  1  0  0  0  0
  3  4  1  0  0  0  0
  4  5  1  0  0  0  0
  4  6  1  0  0  0  0
  4  7  1  0  0  0  0
  1  8  1  0  0  0  0
  1  9  1  0  0  0  0
  1 10  1  0  0  0  0
  2 11  1  0  0  0  0
  2 12  1  0  0  0  0
  3 13  1  0  0  0  0
  3 14  1  0  0  0  0
  6 15  1  0  0  0  0
  6 16  1  0  0  0  0
  6 17  1  0  0  0  0
  7 18  1  0  0  0  0
M  END
