 xtb: 6.7.1 (edcfbbe)
          04072509193D

 19 19  0     0  0            999 V2000
   -2.5163   -0.1759   -0.4930 C   0  0  0  0  0  0  0  0  0  0  0  0
   -1.9334   -1.2537    0.1517 C   0  0  0  0  0  0  0  0  0  0  0  0
   -0.6671   -1.1335    0.6969 C   0  0  0  0  0  0  0  0  0  0  0  0
    0.0306    0.0649    0.6106 C   0  0  0  0  0  0  0  0  0  0  0  0
   -0.5615    1.1397   -0.0398 C   0  0  0  0  0  0  0  0  0  0  0  0
   -1.8259    1.0206   -0.5893 C   0  0  0  0  0  0  0  0  0  0  0  0
    1.4217    0.1794    1.1662 C   0  0  0  0  0  0  0  0  0  0  0  0
    2.4651   -0.1614    0.0957 C   0  0  0  0  0  0  0  0  0  0  0  0
    2.4670    0.8559   -0.8850 O   0  0  0  0  0  0  0  0  0  0  0  0
   -3.5043   -0.2683   -0.9190 H   0  0  0  0  0  0  0  0  0  0  0  0
   -2.4662   -2.1900    0.2296 H   0  0  0  0  0  0  0  0  0  0  0  0
   -0.2156   -1.9780    1.1981 H   0  0  0  0  0  0  0  0  0  0  0  0
   -0.0189    2.0696   -0.1233 H   0  0  0  0  0  0  0  0  0  0  0  0
   -2.2743    1.8640   -1.0933 H   0  0  0  0  0  0  0  0  0  0  0  0
    1.6073    1.1993    1.5051 H   0  0  0  0  0  0  0  0  0  0  0  0
    1.5527   -0.5065    2.0034 H   0  0  0  0  0  0  0  0  0  0  0  0
    3.4558   -0.2324    0.5664 H   0  0  0  0  0  0  0  0  0  0  0  0
    2.2178   -1.1309   -0.3572 H   0  0  0  0  0  0  0  0  0  0  0  0
    3.0767    0.6186   -1.5953 H   0  0  0  0  0  0  0  0  0  0  0  0
  1  2  4  0  0  0  0
  2  3  4  0  0  0  0
  3  4  4  0  0  0  0
  4  5  4  0  0  0  0
  1  6  4  0  0  0  0
  5  6  4  0  0  0  0
  4  7  1  0  0  0  0
  7  8  1  0  0  0  0
  8  9  1  0  0  0  0
  1 10  1  0  0  0  0
  2 11  1  0  0  0  0
  3 12  1  0  0  0  0
  5 13  1  0  0  0  0
  6 14  1  0  0  0  0
  7 15  1  0  0  0  0
  7 16  1  0  0  0  0
  8 17  1  0  0  0  0
  8 18  1  0  0  0  0
  9 19  1  0  0  0  0
M  END
