  18
 
 C         -3.3677136363        0.6139214200        0.0718651417
 O         -1.9584815128        0.7747924518        0.0437002137
 C         -1.2358982715       -0.3550556023        0.1111553796
 O         -1.7359046999       -1.4501138630        0.2010736782
 C          0.2237904951       -0.1023145389        0.0679181817
 C          1.0839319006       -1.1935044923        0.1702811669
 C          2.4517575311       -1.0041000899        0.1280627905
 C          2.9684846299        0.2737670105       -0.0179691878
 C          2.1162443947        1.3622929234       -0.1192948088
 C          0.7465056258        1.1801435760       -0.0762866790
 H         -3.7867206174        1.6054147049        0.2265983615
 H         -3.6573187630       -0.0593486064        0.8816090442
 H         -3.7187746280        0.1960143577       -0.8745932915
 H          0.6567047538       -2.1787530775        0.2814265382
 H          3.1173352284       -1.8508173082        0.2074265405
 H          4.0377315284        0.4224412702       -0.0529370503
 H          2.5231253506        2.3562963707       -0.2325182200
 H          0.0767093797        2.0218410586       -0.1548846212
          18
        -29.33321915
 C         -3.3665111322       -0.6067903405        0.0012347387
 O         -1.9575437940       -0.7722064048        0.0002575602
 C         -1.2371404811        0.3616397459       -0.0005030128
 O         -1.7411903159        1.4585599400       -0.0009283052
 C          0.2235165335        0.1104415178       -0.0006330700
 C          1.0803706400        1.2088975719        0.0001709494
 C          2.4490016493        1.0199914914        0.0008930220
 C          2.9696539093       -0.2645386589        0.0006287691
 C          2.1204773767       -1.3602338063       -0.0003558069
 C          0.7500224707       -1.1786080241       -0.0010198639
 H         -3.7907115110       -1.6076825492       -0.0023713488
 H         -3.6844435065       -0.0511580723       -0.8838375511
 H         -3.6837697183       -0.0581396949        0.8908320409
 H          0.6504410593        2.1991561181        0.0002434341
 H          3.1119709736        1.8723427592        0.0016613024
 H          4.0396032469       -0.4128389134        0.0014944723
 H          2.5302474123       -2.3595332572       -0.0005100888
 H          0.0824926043       -2.0258784212       -0.0018190027
