  18
 
 C          0.5830000000       -1.0170000000       -3.5060000000
 O          0.6720000000       -1.0340000000       -2.0770000000
 C          1.9290000000       -1.0160000000       -1.5660000000
 O          2.9700000000       -0.9870000000       -2.2040000000
 C          1.8850000000       -1.0360000000       -0.1120000000
 C          2.9210000000       -1.6310000000        0.6080000000
 C          2.8780000000       -1.6520000000        2.0020000000
 C          1.8000000000       -1.0790000000        2.6760000000
 C          0.7640000000       -0.4840000000        1.9550000000
 C          0.8070000000       -0.4630000000        0.5610000000
 H         -0.4670000000       -1.0340000000       -3.8070000000
 H          1.1040000000       -1.8870000000       -3.9140000000
 H          1.0530000000       -0.1040000000       -3.8810000000
 H          3.7660000000       -2.0810000000        0.0930000000
 H          3.6850000000       -2.1150000000        2.5630000000
 H          1.7660000000       -1.0950000000        3.7610000000
 H         -0.0760000000       -0.0380000000        2.4800000000
 H         -0.0060000000        0.0040000000        0.0100000000
