 xtb: 6.7.1 (edcfbbe)
          04112511553D

 24 24  0     0  0            999 V2000
   -2.4792    0.8812   -0.6789 C   0  0  0  0  0  0  0  0  0  0  0  0
   -1.8456   -0.4933   -0.4851 C   0  0  0  0  0  0  0  0  0  0  0  0
   -1.1774   -0.6974    0.8824 C   0  0  0  0  0  0  0  0  0  0  0  0
    0.3212   -0.3765    0.9978 C   0  0  0  0  0  0  0  0  0  0  0  0
    1.1967   -1.2395    0.0632 C   0  0  0  0  0  0  0  0  0  0  0  0
    2.1392   -0.2690   -0.6544 C   0  0  0  0  0  0  0  0  0  0  0  0
    1.3530    1.0376   -0.6998 C   0  0  0  0  0  0  0  0  0  0  0  0
    0.6991    1.0822    0.6785 C   0  0  0  0  0  0  0  0  0  0  0  0
   -3.0376    0.9031   -1.6127 H   0  0  0  0  0  0  0  0  0  0  0  0
   -3.1680    1.1015    0.1340 H   0  0  0  0  0  0  0  0  0  0  0  0
   -1.7307    1.6668   -0.7189 H   0  0  0  0  0  0  0  0  0  0  0  0
   -2.6357   -1.2412   -0.5895 H   0  0  0  0  0  0  0  0  0  0  0  0
   -1.1288   -0.6721   -1.2866 H   0  0  0  0  0  0  0  0  0  0  0  0
   -1.7145   -0.1045    1.6265 H   0  0  0  0  0  0  0  0  0  0  0  0
   -1.2927   -1.7470    1.1664 H   0  0  0  0  0  0  0  0  0  0  0  0
    0.5883   -0.5875    2.0385 H   0  0  0  0  0  0  0  0  0  0  0  0
    1.7491   -1.9962    0.6192 H   0  0  0  0  0  0  0  0  0  0  0  0
    0.5733   -1.7599   -0.6634 H   0  0  0  0  0  0  0  0  0  0  0  0
    3.0482   -0.1265   -0.0673 H   0  0  0  0  0  0  0  0  0  0  0  0
    2.4244   -0.6246   -1.6438 H   0  0  0  0  0  0  0  0  0  0  0  0
    1.9882    1.9026   -0.8876 H   0  0  0  0  0  0  0  0  0  0  0  0
    0.5949    0.9917   -1.4820 H   0  0  0  0  0  0  0  0  0  0  0  0
    1.4316    1.4347    1.4073 H   0  0  0  0  0  0  0  0  0  0  0  0
   -0.1582    1.7489    0.7237 H   0  0  0  0  0  0  0  0  0  0  0  0
  1  2  1  0  0  0  0
  2  3  1  0  0  0  0
  3  4  1  0  0  0  0
  4  5  1  0  0  0  0
  5  6  1  0  0  0  0
  6  7  1  0  0  0  0
  4  8  1  0  0  0  0
  7  8  1  0  0  0  0
  1  9  1  0  0  0  0
  1 10  1  0  0  0  0
  1 11  1  0  0  0  0
  2 12  1  0  0  0  0
  2 13  1  0  0  0  0
  3 14  1  0  0  0  0
  3 15  1  0  0  0  0
  4 16  1  0  0  0  0
  5 17  1  0  0  0  0
  5 18  1  0  0  0  0
  6 19  1  0  0  0  0
  6 20  1  0  0  0  0
  7 21  1  0  0  0  0
  7 22  1  0  0  0  0
  8 23  1  0  0  0  0
  8 24  1  0  0  0  0
M  END
