  12
 
 C          0.0159522244        1.4179807034       -0.0001739942
 C          0.7978881868        0.3201106647        0.0000077670
 C          0.2089286688       -1.0221051711       -0.0000038878
 O          0.8054749670       -2.0675055483        0.0002625263
 N         -1.1834571753       -0.9877824595        0.0000749748
 C         -2.0158063888        0.1071562016       -0.0000840467
 O         -3.2169012245        0.0340209956       -0.0000814944
 N         -1.3438069726        1.3143720902       -0.0002158263
 Cl         2.5104260306        0.4302315653        0.0001656376
 H          0.4303297868        2.4144034466       -0.0003192461
 H         -1.6470405392       -1.8908270090        0.0002379458
 H         -1.9207176027        2.1440923777       -0.0003441237
          12
        -28.65716389
 C          0.0153129124        1.4193374594        0.0004140238
 C          0.7979860281        0.3220208004        0.0001094227
 C          0.2101000168       -1.0207606176        0.0003444337
 O          0.8078333261       -2.0654424520       -0.0001513113
 N         -1.1819657944       -0.9877259272        0.0008414256
 C         -2.0153167570        0.1063217637       -0.0000112227
 O         -3.2163873896        0.0320291612       -0.0009957859
 N         -1.3445534085        1.3140097642        0.0004777391
 Cl         2.5103782178        0.4327402500       -0.0003180567
 H          0.4284080729        2.4161773787        0.0005071589
 H         -1.6444110496       -1.8913482898        0.0004904221
 H         -1.9221038392        2.1432567504       -0.0001418695
