20
 xtb: 6.7.1 (edcfbbe)
C            0.06611822933543       -2.54294732426374        0.04497126622494
C           -0.08254162287267       -1.07129449988143       -0.20432688456562
O            0.83997607822989       -0.33902496917364        0.63114271394051
C            1.86018070420018        0.32974316821640        0.02636716513527
O            2.09813508383661        0.25450354892537       -1.16327306365582
C            2.61095753278683        1.15998329619902        1.01158283082667
O           -1.39371588453662       -0.67765592327388        0.21969719860258
C           -1.80654130335067        0.56783224999850       -0.16352002861945
O           -1.11258948678773        1.31390743626008       -0.82456038533078
C           -3.17275527906491        0.86343865858100        0.35131814660026
H            1.07178696020840       -2.85289497831767       -0.25008797624546
H           -0.66254907541115       -3.09249235315486       -0.55599056868347
H           -0.08708473607593       -2.77119364531076        1.10306288734827
H            0.06866024909628       -0.79094964855159       -1.24757060369854
H            2.74599416872456        0.62274369162112        1.95227595565710
H            3.57209500265003        1.45472652002792        0.59211803521453
H            2.01989981903359        2.05823806143860        1.22310227341492
H           -3.55661396648141        1.76932891478454       -0.11598825727858
H           -3.84271899148407        0.01998800140529        0.16839206185413
H           -3.11324378869805        1.00926924762150        1.43542198938508
