  9
 
 C         -2.3029829051        0.2657161587       -0.2900085070
 C         -1.2389364369        0.0390347898        0.4584938705
 C         -0.0878522435       -0.7961975639        0.0259183055
 Cl         1.3880374067        0.2275415466       -0.0954967299
 H         -3.1175465569        0.8786028723        0.0537790987
 H         -2.4046283660       -0.1603084969       -1.2745523632
 H         -1.1462894953        0.4831444682        1.4399574690
 H          0.1465764770       -1.5721395687        0.7555284922
 H         -0.2488538838       -1.2345185647       -0.9581304352
           9
        -13.48285410
 C         -2.2711511579        0.3285909910       -0.2636554769
 C         -1.2295447716       -0.0371764490        0.4609040957
 C         -0.0769711408       -0.8055654760       -0.0794751258
 Cl         1.4019204878        0.2189805058       -0.0332196317
 H         -3.0869049936        0.8891154126        0.1584143579
 H         -2.3532276380        0.0745502359       -1.3077322630
 H         -1.1560691749        0.2349083999        1.5048003349
 H          0.1469761132       -1.6821546098        0.5288795274
 H         -0.2289446327       -1.0920211888       -1.1193473962
