 9

C     -0.349000     1.320000     0.408000
C     -0.359000    -0.018000     0.425000
C      0.324000    -0.867000    -0.595000
Cl     1.540000    -1.896000     0.189000
H     -0.872000     1.882000     1.174000
H      0.175000     1.874000    -0.362000
H     -0.907000    -0.523000     1.216000
H     -0.402000    -1.518000    -1.091000
H      0.832000    -0.272000    -1.360000
