 xtb: 6.7.1 (edcfbbe)
          04112512143D

 21 20  0     0  0            999 V2000
    2.1033   -0.7694   -0.7428 C   0  0  0  0  0  0  0  0  0  0  0  0
    1.4754   -0.4545    0.6121 C   0  0  0  0  0  0  0  0  0  0  0  0
    0.2020    0.4061    0.5458 C   0  0  0  0  0  0  0  0  0  0  0  0
   -0.1821    0.5191    1.5677 H   0  0  0  0  0  0  0  0  0  0  0  0
   -0.9225   -0.1811   -0.3312 C   0  0  0  0  0  0  0  0  0  0  0  0
   -1.2791   -1.6092    0.0739 C   0  0  0  0  0  0  0  0  0  0  0  0
   -2.1611    0.7103   -0.2308 C   0  0  0  0  0  0  0  0  0  0  0  0
    0.5104    1.7331    0.1502 O   0  0  0  0  0  0  0  0  0  0  0  0
    2.3663    0.1415   -1.2755 H   0  0  0  0  0  0  0  0  0  0  0  0
    1.4314   -1.3557   -1.3637 H   0  0  0  0  0  0  0  0  0  0  0  0
    3.0152   -1.3429   -0.5952 H   0  0  0  0  0  0  0  0  0  0  0  0
    1.2431   -1.3818    1.1349 H   0  0  0  0  0  0  0  0  0  0  0  0
    2.1988    0.0950    1.2194 H   0  0  0  0  0  0  0  0  0  0  0  0
   -0.5821   -0.1778   -1.3726 H   0  0  0  0  0  0  0  0  0  0  0  0
   -1.5154   -1.6517    1.1348 H   0  0  0  0  0  0  0  0  0  0  0  0
   -2.1514   -1.9406   -0.4845 H   0  0  0  0  0  0  0  0  0  0  0  0
   -0.4653   -2.2991   -0.1286 H   0  0  0  0  0  0  0  0  0  0  0  0
   -1.8977    1.7486   -0.4170 H   0  0  0  0  0  0  0  0  0  0  0  0
   -2.5910    0.6427    0.7663 H   0  0  0  0  0  0  0  0  0  0  0  0
   -2.9119    0.4031   -0.9544 H   0  0  0  0  0  0  0  0  0  0  0  0
    0.8759    1.7057   -0.7448 H   0  0  0  0  0  0  0  0  0  0  0  0
  1  2  1  0  0  0  0
  2  3  1  0  0  0  0
  3  4  1  0  0  0  0
  3  5  1  0  0  0  0
  5  6  1  0  0  0  0
  5  7  1  0  0  0  0
  3  8  1  0  0  0  0
  1  9  1  0  0  0  0
  1 10  1  0  0  0  0
  1 11  1  0  0  0  0
  2 12  1  0  0  0  0
  2 13  1  0  0  0  0
  5 14  1  0  0  0  0
  6 15  1  0  0  0  0
  6 16  1  0  0  0  0
  6 17  1  0  0  0  0
  7 18  1  0  0  0  0
  7 19  1  0  0  0  0
  7 20  1  0  0  0  0
  8 21  1  0  0  0  0
M  END
