  15
 
 C         -0.5158941608       -1.8080296259       -0.0000847495
 C          0.7274726377       -1.2087339217        0.0002638675
 C          0.8262840601        0.1837752434        0.0006682186
 C         -0.3254400921        0.9637671426        0.0004536311
 C         -1.5749784112        0.3563049432        0.0000109109
 C         -1.6642385897       -1.0334549320       -0.0002195921
 O         -2.6753745146        1.1504814961       -0.0001516848
 C          2.1481567683        0.8229452070        0.0016481718
 O          3.2029360764        0.2419814809        0.0001099991
 H         -0.6003790438       -2.8842135252       -0.0001623155
 H          1.6340959006       -1.7933521660        0.0004359193
 H         -0.2675097048        2.0412610407        0.0006356472
 H         -2.6379887097       -1.5057962449       -0.0004818186
 H         -3.4756159114        0.6110412811       -0.0005138045
 H          2.1075820331        1.9306216703        0.0000697239
          15
        -26.14672101
 C         -1.0184902936       -1.8020890179        0.0002946857
 C          0.3525596850       -1.6177262968       -0.0004019577
 C          0.8739332450       -0.3257560641       -0.0010169107
 C          0.0132843473        0.7713453912       -0.0011284458
 C         -1.3598271814        0.5818425849       -0.0001894969
 C         -1.8734190987       -0.7156377450        0.0005578213
 O         -2.2349291193        1.6165800178        0.0003741587
 C          2.3237228915       -0.1012158192        0.0001869559
 O          2.8617190002        0.9770827490        0.0007428782
 H         -1.4291186912       -2.8003813841        0.0011001810
 H          1.0205848411       -2.4659214391       -0.0003060011
 H          0.4419854348        1.7645302680       -0.0014500129
 H         -2.9439724083       -0.8453614638        0.0016310742
 H         -1.7569744558        2.4553410110       -0.0005683132
 H          2.9194502746       -1.0359804419        0.0020882890
