 15

C      1.885000    -1.036000    -0.112000
C      2.921000    -1.631000     0.608000
C      2.878000    -1.652000     2.002000
C      1.800000    -1.079000     2.676000
C      0.764000    -0.484000     1.955000
C      0.807000    -0.463000     0.561000
O     -0.288000     0.075000     2.612000
C      3.959000    -2.270000     2.754000
O      4.940000    -2.792000     2.217000
H      1.919000    -1.020000    -1.198000
H      3.757000    -2.075000     0.074000
H      1.761000    -1.093000     3.763000
H      0.002000    -0.002000    -0.006000
H     -0.923000     0.446000     1.978000
H      3.880000    -2.263000     3.863000
