  5
 
 C          0.0002333364        1.1664111414       -0.0000153020
 I         -1.8017598393        0.0029826073       -0.0001748012
 I          1.8019636885        0.0027985904        0.0000993331
 H          0.0008185161        1.7788917686        0.8938826546
 H          0.0008035560        1.7787654966       -0.8940039138
           5
        -10.76495283
 C          0.0000932031        1.0986241277        0.0000116594
 I         -1.8019377933       -0.0655770274        0.0000025676
 I          1.8019295749       -0.0655821333       -0.0000006638
 H          0.0003720991        1.7113252362        0.8937487253
 H         -0.0004480187        1.7107536484       -0.8941273788
