14
 xtb: 6.7.1 (edcfbbe)
C            1.06245127087254        1.41346838710799        0.24806792645552
C            0.76277084896136        0.03761216549684       -0.30921048073876
C            1.95857834470271       -0.88641474481326       -0.30961760764536
O           -0.24528404403795       -0.61522397937986        0.56207982673777
C           -1.52763792976209       -0.32299671702341        0.35175572578593
O           -1.96505364515390        0.42357224439713       -0.50311676572974
H            1.47439939545841        1.33395561797866        1.25909724112510
H            1.80341099870190        1.90556919510645       -0.38917706736948
H            0.16526655678445        2.03764469066637        0.27618377288572
H            0.32565960141973        0.10718546245547       -1.30929009566072
H            2.36873749658909       -0.99139039273615        0.69964042555494
H            2.73475430334766       -0.46642712825659       -0.95573119657639
H            1.69090900926891       -1.87539021698540       -0.69137691728571
H           -2.15672788767858       -0.86742104464264        1.07119741858697
