 xtb: 6.7.1 (edcfbbe)
          04112512203D

 18 17  0     0  0            999 V2000
   -2.0436    0.8360   -0.6462 C   0  0  0  0  0  0  0  0  0  0  0  0
   -1.3323    0.5379    0.6698 C   0  0  0  0  0  0  0  0  0  0  0  0
   -0.0154   -0.2370    0.5321 C   0  0  0  0  0  0  0  0  0  0  0  0
    0.4179   -0.3357    1.5343 H   0  0  0  0  0  0  0  0  0  0  0  0
   -0.2168   -1.6423   -0.0305 C   0  0  0  0  0  0  0  0  0  0  0  0
    1.0140    0.5278   -0.3055 C   0  0  0  0  0  0  0  0  0  0  0  0
    2.2914   -0.0378   -0.0767 O   0  0  0  0  0  0  0  0  0  0  0  0
   -1.4249    1.4521   -1.2930 H   0  0  0  0  0  0  0  0  0  0  0  0
   -2.2927   -0.0813   -1.1717 H   0  0  0  0  0  0  0  0  0  0  0  0
   -2.9680    1.3733   -0.4482 H   0  0  0  0  0  0  0  0  0  0  0  0
   -2.0001   -0.0437    1.3087 H   0  0  0  0  0  0  0  0  0  0  0  0
   -1.1277    1.4814    1.1814 H   0  0  0  0  0  0  0  0  0  0  0  0
    0.7365   -2.1647   -0.0466 H   0  0  0  0  0  0  0  0  0  0  0  0
   -0.6025   -1.6029   -1.0459 H   0  0  0  0  0  0  0  0  0  0  0  0
   -0.9124   -2.2031    0.5884 H   0  0  0  0  0  0  0  0  0  0  0  0
    1.0144    1.5863   -0.0092 H   0  0  0  0  0  0  0  0  0  0  0  0
    0.7575    0.4585   -1.3700 H   0  0  0  0  0  0  0  0  0  0  0  0
    2.9439    0.4131   -0.6280 H   0  0  0  0  0  0  0  0  0  0  0  0
  1  2  1  0  0  0  0
  2  3  1  0  0  0  0
  3  4  1  0  0  0  0
  3  5  1  0  0  0  0
  3  6  1  0  0  0  0
  6  7  1  0  0  0  0
  1  8  1  0  0  0  0
  1  9  1  0  0  0  0
  1 10  1  0  0  0  0
  2 11  1  0  0  0  0
  2 12  1  0  0  0  0
  5 13  1  0  0  0  0
  5 14  1  0  0  0  0
  5 15  1  0  0  0  0
  6 16  1  0  0  0  0
  6 17  1  0  0  0  0
  7 18  1  0  0  0  0
M  END
