 19

C      0.850000    -1.723000    -3.487000
C      0.677000    -1.030000    -2.152000
O      1.927000    -1.016000    -1.473000
C      1.885000    -1.036000    -0.112000
C      2.921000    -1.631000     0.608000
C      2.878000    -1.652000     2.002000
C      1.800000    -1.079000     2.676000
C      0.764000    -0.484000     1.955000
C      0.807000    -0.463000     0.561000
H     -0.095000    -1.751000    -4.037000
H      1.598000    -1.206000    -4.096000
H      1.207000    -2.748000    -3.346000
H     -0.053000    -1.562000    -1.535000
H      0.342000     0.002000    -2.295000
H      3.764000    -2.078000     0.089000
H      3.685000    -2.114000     2.563000
H      1.767000    -1.093000     3.761000
H     -0.076000    -0.037000     2.480000
H     -0.003000     0.001000     0.005000
