 xtb: 6.7.1 (edcfbbe)
          04112512333D

 21 20  0     0  0            999 V2000
    1.8596   -1.0494    0.3858 C   0  0  0  0  0  0  0  0  0  0  0  0
    1.2824    0.2881    0.8339 C   0  0  0  0  0  0  0  0  0  0  0  0
    0.1726    0.8658   -0.0571 C   0  0  0  0  0  0  0  0  0  0  0  0
   -0.0398    1.8736    0.3466 H   0  0  0  0  0  0  0  0  0  0  0  0
   -1.1846    0.1223   -0.0873 C   0  0  0  0  0  0  0  0  0  0  0  0
   -1.1434   -1.2126   -0.8309 C   0  0  0  0  0  0  0  0  0  0  0  0
   -1.7631   -0.0507    1.3143 C   0  0  0  0  0  0  0  0  0  0  0  0
    0.7085    1.0063   -1.3632 O   0  0  0  0  0  0  0  0  0  0  0  0
    1.1816   -1.8696    0.5972 H   0  0  0  0  0  0  0  0  0  0  0  0
    2.7927   -1.2373    0.9118 H   0  0  0  0  0  0  0  0  0  0  0  0
    2.0628   -1.0243   -0.6811 H   0  0  0  0  0  0  0  0  0  0  0  0
    0.9110    0.2194    1.8559 H   0  0  0  0  0  0  0  0  0  0  0  0
    2.0882    1.0261    0.8215 H   0  0  0  0  0  0  0  0  0  0  0  0
   -1.8595    0.7854   -0.6461 H   0  0  0  0  0  0  0  0  0  0  0  0
   -2.1427   -1.4803   -1.1667 H   0  0  0  0  0  0  0  0  0  0  0  0
   -0.4918   -1.1434   -1.6982 H   0  0  0  0  0  0  0  0  0  0  0  0
   -0.7810   -2.0090   -0.1886 H   0  0  0  0  0  0  0  0  0  0  0  0
   -2.7832   -0.4211    1.2479 H   0  0  0  0  0  0  0  0  0  0  0  0
   -1.7738    0.8977    1.8469 H   0  0  0  0  0  0  0  0  0  0  0  0
   -1.1793   -0.7656    1.8878 H   0  0  0  0  0  0  0  0  0  0  0  0
    0.0644    1.4604   -1.9217 H   0  0  0  0  0  0  0  0  0  0  0  0
  1  2  1  0  0  0  0
  2  3  1  0  0  0  0
  3  4  1  0  0  0  0
  3  5  1  0  0  0  0
  5  6  1  0  0  0  0
  5  7  1  0  0  0  0
  3  8  1  0  0  0  0
  1  9  1  0  0  0  0
  1 10  1  0  0  0  0
  1 11  1  0  0  0  0
  2 12  1  0  0  0  0
  2 13  1  0  0  0  0
  5 14  1  0  0  0  0
  6 15  1  0  0  0  0
  6 16  1  0  0  0  0
  6 17  1  0  0  0  0
  7 18  1  0  0  0  0
  7 19  1  0  0  0  0
  7 20  1  0  0  0  0
  8 21  1  0  0  0  0
M  END
