 xtb: 6.7.1 (edcfbbe)
          04112511573D

 13 12  0     0  0            999 V2000
    1.7153   -1.2418   -0.9660 C   0  0  0  0  0  0  0  0  0  0  0  0
    1.4757   -0.2026   -0.0004 O   0  0  0  0  0  0  0  0  0  0  0  0
    0.0437    0.4016   -0.0014 S   0  0  0  0  0  0  0  0  0  0  0  0
   -0.4060    0.6783   -1.3354 O   0  0  0  0  0  0  0  0  0  0  0  0
    0.0368    1.4914    0.9247 O   0  0  0  0  0  0  0  0  0  0  0  0
   -0.7691   -0.8166    0.5883 O   0  0  0  0  0  0  0  0  0  0  0  0
   -2.1965   -0.6622    0.5581 C   0  0  0  0  0  0  0  0  0  0  0  0
    1.1756   -2.1380   -0.6644 H   0  0  0  0  0  0  0  0  0  0  0  0
    2.7896   -1.4077   -0.9614 H   0  0  0  0  0  0  0  0  0  0  0  0
    1.3692   -0.8996   -1.9405 H   0  0  0  0  0  0  0  0  0  0  0  0
   -2.5831   -1.2449    1.3913 H   0  0  0  0  0  0  0  0  0  0  0  0
   -2.5731   -1.0348   -0.3941 H   0  0  0  0  0  0  0  0  0  0  0  0
   -2.4459    0.3915    0.6721 H   0  0  0  0  0  0  0  0  0  0  0  0
  1  2  1  0  0  0  0
  2  3  1  0  0  0  0
  3  4  2  0  0  0  0
  3  5  2  0  0  0  0
  3  6  1  0  0  0  0
  6  7  1  0  0  0  0
  1  8  1  0  0  0  0
  1  9  1  0  0  0  0
  1 10  1  0  0  0  0
  7 11  1  0  0  0  0
  7 12  1  0  0  0  0
  7 13  1  0  0  0  0
M  END
