  17
 
 C          0.7770000000       -0.0130000000       -0.7750000000
 C          0.3980000000        0.9310000000       -1.9040000000
 O          0.2090000000        2.2340000000       -1.3690000000
 N         -0.1520000000        3.2040000000       -2.3470000000
 O         -0.2580000000        2.8240000000       -3.5150000000
 O         -0.3120000000        4.3280000000       -1.8700000000
 C          0.9970000000       -1.4330000000       -1.2700000000
 O          1.3480000000       -2.2750000000       -0.1800000000
 N          1.5730000000       -3.6290000000       -0.5560000000
 O          1.4440000000       -3.9190000000       -1.7480000000
 O          1.8770000000       -4.3460000000        0.3970000000
 H          1.6790000000        0.3510000000       -0.2670000000
 H          0.0000000000        0.0000000000        0.0000000000
 H          1.1900000000        0.9760000000       -2.6590000000
 H         -0.5340000000        0.6130000000       -2.3830000000
 H          1.8120000000       -1.4700000000       -2.0000000000
 H          0.0950000000       -1.8360000000       -1.7420000000
