24
 xtb: 6.7.1 (edcfbbe)
C           -3.59109650385757       -0.33239493158650       -0.25566843390893
C           -2.19220370471729       -0.60262461161637        0.29205716581412
C           -1.18232503718371        0.46365471898647       -0.13063063591585
C            0.22126675720795        0.25287082255154        0.43249359615215
C            0.90396093904196       -1.04885750174967       -0.02812488370768
C            2.39557596322358       -0.75166788233790        0.13626811895315
C            2.51938574276167        0.67389474623142       -0.41711845731994
C            1.21763403696097        1.37986403539879        0.03060897228854
H           -4.30276345385636       -1.10247481244949        0.05983322084091
H           -3.96953025398534        0.63550282991485        0.09233596465627
H           -3.58520428044281       -0.31193165656171       -1.35142656651208
H           -2.22749175603982       -0.64952558739353        1.38888755034625
H           -1.85160158318311       -1.58807273853698       -0.04998559444942
H           -1.12147592354949        0.49368195773624       -1.22887657053745
H           -1.55307948378831        1.44899339811784        0.18633942451448
H            0.15014950728723        0.22367144337102        1.52863426401234
H            0.57238005015618       -1.92722730410818        0.53442064143970
H            0.67902127068341       -1.22507101860112       -1.08983155737670
H            2.66001836805233       -0.76773607296540        1.20157641958776
H            3.04188588111082       -1.46925475819083       -0.37964728412273
H            3.42137967481406        1.18952529623252       -0.07354018247127
H            2.56484327910549        0.63036484979473       -1.51145072918513
H            1.40020510498095        2.04895170008406        0.87739014639976
H            0.80265623991048        1.99307584361224       -0.77682999752251
