 xtb: 6.7.1 (edcfbbe)
          04112511043D

 24 24  0     0  0            999 V2000
    2.7061    0.2553   -1.4791 C   0  0  0  0  0  0  0  0  0  0  0  0
    2.2305    0.9746   -0.2181 C   0  0  0  0  0  0  0  0  0  0  0  0
    1.3326    0.1458    0.7148 C   0  0  0  0  0  0  0  0  0  0  0  0
    1.3668    0.6331    1.6983 H   0  0  0  0  0  0  0  0  0  0  0  0
    1.8695   -1.2801    0.8915 C   0  0  0  0  0  0  0  0  0  0  0  0
   -0.1286    0.0914    0.3211 C   0  0  0  0  0  0  0  0  0  0  0  0
   -1.0412   -0.3765    1.2646 C   0  0  0  0  0  0  0  0  0  0  0  0
   -2.3890   -0.4729    0.9766 C   0  0  0  0  0  0  0  0  0  0  0  0
   -2.8604   -0.0942   -0.2695 C   0  0  0  0  0  0  0  0  0  0  0  0
   -1.9697    0.3872   -1.2108 C   0  0  0  0  0  0  0  0  0  0  0  0
   -0.6182    0.4802   -0.9183 C   0  0  0  0  0  0  0  0  0  0  0  0
    1.8822   -0.2083   -2.0142 H   0  0  0  0  0  0  0  0  0  0  0  0
    3.1914    0.9661   -2.1447 H   0  0  0  0  0  0  0  0  0  0  0  0
    3.4273   -0.5189   -1.2322 H   0  0  0  0  0  0  0  0  0  0  0  0
    3.1145    1.2776    0.3485 H   0  0  0  0  0  0  0  0  0  0  0  0
    1.6986    1.8885   -0.4913 H   0  0  0  0  0  0  0  0  0  0  0  0
    1.3220   -1.7989    1.6741 H   0  0  0  0  0  0  0  0  0  0  0  0
    1.7603   -1.8477   -0.0286 H   0  0  0  0  0  0  0  0  0  0  0  0
    2.9208   -1.2531    1.1680 H   0  0  0  0  0  0  0  0  0  0  0  0
   -0.6890   -0.6626    2.2457 H   0  0  0  0  0  0  0  0  0  0  0  0
   -3.0745   -0.8399    1.7265 H   0  0  0  0  0  0  0  0  0  0  0  0
   -3.9128   -0.1677   -0.5002 H   0  0  0  0  0  0  0  0  0  0  0  0
   -2.3260    0.6957   -2.1830 H   0  0  0  0  0  0  0  0  0  0  0  0
    0.0437    0.8713   -1.6734 H   0  0  0  0  0  0  0  0  0  0  0  0
  1  2  1  0  0  0  0
  2  3  1  0  0  0  0
  3  4  1  0  0  0  0
  3  5  1  0  0  0  0
  3  6  1  0  0  0  0
  6  7  4  0  0  0  0
  7  8  4  0  0  0  0
  8  9  4  0  0  0  0
  9 10  4  0  0  0  0
  6 11  4  0  0  0  0
 10 11  4  0  0  0  0
  1 12  1  0  0  0  0
  1 13  1  0  0  0  0
  1 14  1  0  0  0  0
  2 15  1  0  0  0  0
  2 16  1  0  0  0  0
  5 17  1  0  0  0  0
  5 18  1  0  0  0  0
  5 19  1  0  0  0  0
  7 20  1  0  0  0  0
  8 21  1  0  0  0  0
  9 22  1  0  0  0  0
 10 23  1  0  0  0  0
 11 24  1  0  0  0  0
M  END
