 xtb: 6.7.1 (edcfbbe)
          04112511303D

 22 21  0     0  0            999 V2000
    2.3153    0.9515    0.5893 C   0  0  0  0  0  0  0  0  0  0  0  0
    1.1747   -0.0624    0.5193 C   0  0  0  0  0  0  0  0  0  0  0  0
    1.5800   -1.2615   -0.3492 C   0  0  0  0  0  0  0  0  0  0  0  0
   -0.0520    0.5609   -0.1170 C   0  0  0  0  0  0  0  0  0  0  0  0
    0.0574    1.4211   -0.9709 O   0  0  0  0  0  0  0  0  0  0  0  0
   -1.4400    0.0930    0.2974 C   0  0  0  0  0  0  0  0  0  0  0  0
   -1.5109   -0.9995    1.3580 C   0  0  0  0  0  0  0  0  0  0  0  0
   -2.2120   -0.3224   -0.9622 C   0  0  0  0  0  0  0  0  0  0  0  0
    3.2074    0.4861    0.9986 H   0  0  0  0  0  0  0  0  0  0  0  0
    2.0367    1.7936    1.2190 H   0  0  0  0  0  0  0  0  0  0  0  0
    2.5380    1.3319   -0.4049 H   0  0  0  0  0  0  0  0  0  0  0  0
    0.9383   -0.4126    1.5241 H   0  0  0  0  0  0  0  0  0  0  0  0
    2.4603   -1.7369    0.0749 H   0  0  0  0  0  0  0  0  0  0  0  0
    0.7811   -1.9955   -0.4072 H   0  0  0  0  0  0  0  0  0  0  0  0
    1.8148   -0.9254   -1.3569 H   0  0  0  0  0  0  0  0  0  0  0  0
   -1.9235    0.9960    0.6929 H   0  0  0  0  0  0  0  0  0  0  0  0
   -1.0121   -1.9058    1.0270 H   0  0  0  0  0  0  0  0  0  0  0  0
   -1.0719   -0.6738    2.2970 H   0  0  0  0  0  0  0  0  0  0  0  0
   -2.5550   -1.2400    1.5444 H   0  0  0  0  0  0  0  0  0  0  0  0
   -2.1353    0.4547   -1.7190 H   0  0  0  0  0  0  0  0  0  0  0  0
   -1.8025   -1.2442   -1.3692 H   0  0  0  0  0  0  0  0  0  0  0  0
   -3.2603   -0.4805   -0.7252 H   0  0  0  0  0  0  0  0  0  0  0  0
  1  2  1  0  0  0  0
  2  3  1  0  0  0  0
  2  4  1  0  0  0  0
  4  5  2  0  0  0  0
  4  6  1  0  0  0  0
  6  7  1  0  0  0  0
  6  8  1  0  0  0  0
  1  9  1  0  0  0  0
  1 10  1  0  0  0  0
  1 11  1  0  0  0  0
  2 12  1  0  0  0  0
  3 13  1  0  0  0  0
  3 14  1  0  0  0  0
  3 15  1  0  0  0  0
  6 16  1  0  0  0  0
  7 17  1  0  0  0  0
  7 18  1  0  0  0  0
  7 19  1  0  0  0  0
  8 20  1  0  0  0  0
  8 21  1  0  0  0  0
  8 22  1  0  0  0  0
M  END
