21
 xtb: 6.7.1 (edcfbbe)
C            2.45043734948067        0.65503097373443       -0.60787893367366
C            1.10574281320457       -0.03914281614945       -0.43868686819324
H            0.79557691126815       -0.45787860694695       -1.40241218277919
C            0.04510170452058        0.93118942025273        0.07364890191056
C           -1.41433698773349        0.44393872803399        0.14868219754427
C           -1.90585488473319       -0.11773108559496       -1.18597000626580
C           -1.68791310083671       -0.54631379675016        1.28445788532373
O            1.25355977596758       -1.19449301450230        0.42471064162311
H            2.38205412252537        1.45992524206718       -1.34651051440758
H            2.77940908948812        1.08909107106513        0.34344429702764
H            3.20949122883320       -0.05690882235050       -0.94578525333976
H            0.36069952468132        1.28686734948387        1.06577515403580
H            0.07437361567596        1.80539239948540       -0.59010525824161
H           -2.00695463953774        1.34406574954126        0.36423031451671
H           -1.40556930390363       -1.06227412038349       -1.42765455386647
H           -1.72284336126056        0.58235009271881       -2.00896928058933
H           -2.98211554938141       -0.31797436949028       -1.14642180355148
H           -1.25317035809491       -1.52861396919918        1.07822562933726
H           -1.27869388927987       -0.18716340215926        2.23533491320872
H           -2.76760184356739       -0.68265340437176        1.41464503479556
H            1.36523782969016       -0.85902503014098        1.32460729374555
