  24
 
 C          4.4923413983        0.2772116185        0.0018356375
 C          3.2026722319       -0.5343644654        0.0011055518
 C          1.9661161432        0.3613956544        0.0067586441
 C          0.6709826601       -0.4469986016        0.0064717231
 C         -0.5653293822        0.4489857311        0.0021304802
 C         -1.8551380527       -0.3648520105        0.0009709623
 C         -3.0935961389        0.5247058162       -0.0004362870
 O         -4.2372722206       -0.3026869505       -0.0009463962
 H          5.3589852079       -0.3798368408       -0.0033069502
 H          4.5450994799        0.9084376896        0.8863913765
 H          4.5408010313        0.9165833194       -0.8771330626
 H          3.1813318048       -1.1830453069        0.8797559489
 H          3.1781024720       -1.1752602089       -0.8831182237
 H          1.9871905794        1.0094423925       -0.8727458923
 H          1.9908290529        1.0042558316        0.8899310035
 H          0.6498651109       -1.0939439323       -0.8734168541
 H          0.6466314160       -1.0906517245        0.8886462426
 H         -0.5418581694        1.0923407208       -0.8808646442
 H         -0.5457228266        1.0965687435        0.8821628247
 H         -1.8947487291       -1.0077934094        0.8815282698
 H         -1.8929377768       -1.0079968101       -0.8795069821
 H         -3.0864730494        1.1704838074       -0.8912846492
 H         -3.0878480868        1.1713598541        0.8897813790
 H         -5.0271121787        0.2471637278       -0.0011986810
          24
        -27.21614009
 C          4.2986761903        0.5398380521       -0.1146246630
 C          3.1085858115       -0.3175922658        0.2978805861
 C          1.7885555740        0.2643433467       -0.2021286664
 C          0.5915403576       -0.5938884718        0.1991572984
 C         -0.7252581694       -0.0065948784       -0.3010526620
 C         -1.9253206264       -0.8663322102        0.0895034434
 C         -3.2469080880       -0.2222048772       -0.3324399970
 O         -3.4736092551        1.0236645649        0.2823429072
 H          5.2278051802        0.1086279317        0.2510713817
 H          4.2034239398        1.5448212141        0.2909517789
 H          4.3576679767        0.6136200041       -1.1983932565
 H          3.0784689813       -0.3963430310        1.3872157148
 H          3.2323154958       -1.3266511061       -0.1024741508
 H          1.8222442656        0.3491263841       -1.2908394917
 H          1.6621937567        1.2712686405        0.2026844037
 H          0.7158150948       -1.6005280843       -0.2080213537
 H          0.5605268001       -0.6816510802        1.2882207621
 H         -0.6922027734        0.0855516575       -1.3887821178
 H         -0.8588874689        0.9966002781        0.1091657264
 H         -1.9303506425       -1.0145341660        1.1739103204
 H         -1.8496281867       -1.8487780867       -0.3802034885
 H         -4.0779855711       -0.9105987908       -0.1148691468
 H         -3.2411876999       -0.0175973666       -1.4054657471
 H         -3.4251980754        0.9066206758        1.2381350124
