  41
 
 C          3.7543652331        2.2663820952       -1.4224965833
 C          3.7945739663        2.1254831500        0.0863086252
 O          2.5654016547        1.6071144913        0.6015742334
 P          2.1994784209        0.0632636747        0.4090422485
 S          3.6801950104       -1.1872521933        0.2340206999
 O          1.2177412040        0.1739195657       -0.8627080428
 C          0.8306745669       -1.0026347213       -1.5736925937
 C          1.6858390935       -1.1806804075       -2.8154265719
 S          0.9070692395       -0.1852610820        2.0607673198
 C         -0.2067692673        1.2162093714        1.6864577194
 S         -1.9115993755        0.9294287878        2.2232744419
 P         -2.5796860627       -0.3667107378        0.6722103512
 S         -4.4646292585       -0.8422783747        0.6943182574
 O         -1.5106974624       -1.5454729985        0.7122443731
 C         -1.9198967456       -2.9150211889        0.6706766000
 C         -2.1957562508       -3.3621198943       -0.7521678803
 O         -2.0657295950        0.3683065164       -0.6627708288
 C         -2.8058806628        1.4690797714       -1.1909347128
 C         -2.2397575531        1.7938083047       -2.5603270683
 H          4.6691798579        2.7383197530       -1.7703738060
 H          3.6687658240        1.2822023548       -1.8790670035
 H          2.9018925528        2.8704873667       -1.7239885815
 H          3.9154205313        3.0937336942        0.5779616011
 H          4.6129268089        1.4596361365        0.3817315031
 H          0.9268841930       -1.8743704734       -0.9182834200
 H         -0.2217131012       -0.8572872065       -1.8300368679
 H          1.3288603356       -2.0348459908       -3.3844534698
 H          1.6340043013       -0.2907929542       -3.4389597745
 H          2.7208712102       -1.3561596574       -2.5304930266
 H         -0.1856770949        1.3943165420        0.6138912830
 H          0.1350623454        2.0884189162        2.2382658880
 H         -1.0907849243       -3.4696106337        1.1161562567
 H         -2.8182711568       -3.0436742380        1.2836717089
 H         -2.4940326221       -4.4067313286       -0.7529188677
 H         -3.0045985935       -2.7647107277       -1.1692024225
 H         -1.3101647576       -3.2423215286       -1.3713610435
 H         -3.8633750422        1.1880105084       -1.2516127169
 H         -2.7138092846        2.3256107851       -0.5129022935
 H         -2.7648061866        2.6476242193       -2.9785144782
 H         -1.1810122308        2.0289807366       -2.4803455229
 H         -2.3588086763        0.9424828576       -3.2255677369
          41
        -65.01858434
 C          4.2853973932        2.0651181292        1.2463766511
 C          4.5335215544        1.1208301084        0.0853457200
 O          3.3385831023        0.8220777543       -0.6318457006
 P          2.2115213328       -0.1206106959       -0.0027474799
 S          2.8779239427       -1.6053050701        1.0781283259
 O          1.3788468195       -0.4770486884       -1.3056650234
 C          1.4474943768       -1.7687252083       -1.9107957497
 C          2.7392498860       -1.9480458351       -2.6836554557
 S          0.8784087295        1.2451676433        0.9196656430
 C          0.0014984591       -0.0031490442        1.9031292569
 S         -0.8737618231       -1.2454439281        0.9109043158
 P         -2.2124909383        0.1229849316        0.0012722374
 S         -2.8827820597        1.5963213927        1.0948650696
 O         -3.3366052106       -0.8186336570       -0.6347063839
 C         -4.5275497192       -1.1320076309        0.0829326877
 C         -4.2710116474       -2.0913056008        1.2297471425
 O         -1.3829210037        0.4935776637       -1.3001236252
 C         -1.4583445233        1.7892751697       -1.8953298304
 C         -2.7455791764        1.9627884909       -2.6772112616
 H          3.6826579076        1.5699932857        2.0056983603
 H          5.2340332903        2.3588144044        1.6870110796
 H          3.7567734328        2.9522266093        0.9058776769
 H          4.9717924310        0.1840016200        0.4487198980
 H          5.1971767371        1.5700416392       -0.6575119388
 H          1.3591665467       -2.5344266938       -1.1315866368
 H          0.5730634454       -1.8142738095       -2.5639846012
 H          3.5835677231       -1.9134985814       -1.9967400341
 H          2.7350402234       -2.9098055044       -3.1892075111
 H          2.8531115803       -1.1547181409       -3.4184315349
 H         -0.7148610784        0.5411220001        2.5182157253
 H          0.7170835521       -0.5513412817        2.5156230805
 H         -4.9682326678       -0.2020293816        0.4606480628
 H         -5.1922152257       -1.5737868753       -0.6634847280
 H         -3.7370097868       -2.9697084735        0.8752841925
 H         -3.6702695652       -1.6034999679        1.9953516511
 H         -5.2168395468       -2.3980650367        1.6675511404
 H         -1.3833462864        2.5497317909       -1.1095464139
 H         -0.5793353207        1.8483083126       -2.5413089444
 H         -2.8471293432        1.1729192678       -3.4175648569
 H         -3.5950149535        1.9172715920       -1.9973227936
 H         -2.7451517026        2.9274785474       -3.1771730707
