17
 xtb: 6.7.1 (edcfbbe)
C           -3.00546382175449        0.14063639835121       -0.10543461112736
C           -1.67097495816421        0.59874406739145        0.46033818602886
C           -0.49372430713236       -0.07994143478099       -0.18100347629773
O           -0.55793488277725       -0.92924263807520       -1.05498669910783
O            0.67098458750994        0.36116722797398        0.33097909256061
C            1.88950027940444       -0.23325464342935       -0.21880897341449
C            3.05606170923603        0.39341190667211        0.50136547500680
H           -3.14443812900753       -0.93522934655169        0.03246744038392
H           -3.82300404724923        0.65765004313290        0.40369818106043
H           -3.07743254023455        0.35947278796044       -1.17452378475216
H           -1.60832699488525        0.41052768522753        1.53898024013573
H           -1.53335494255448        1.67959361027260        0.33793331931652
H            1.84596931416194       -1.31533508813868       -0.06319612298553
H            1.91613286383137       -0.03044120008884       -1.29375715183983
H            3.01250191260846        0.18847511324622        1.57486453953953
H            3.98518949265056       -0.02996553693759        0.10850623566361
H            3.07986186257331        1.47583464840519        0.34612599492760
