 xtb: 6.7.1 (edcfbbe)
          04112511233D

 26 25  0     0  0            999 V2000
   -2.4442    0.7386    0.5466 C   0  0  0  0  0  0  0  0  0  0  0  0
   -1.2468   -0.2137    0.4937 C   0  0  0  0  0  0  0  0  0  0  0  0
   -1.7157   -1.5450   -0.0977 C   0  0  0  0  0  0  0  0  0  0  0  0
   -0.0803    0.4021   -0.3103 C   0  0  0  0  0  0  0  0  0  0  0  0
    0.2761    1.7920    0.2238 C   0  0  0  0  0  0  0  0  0  0  0  0
    1.1609   -0.5175   -0.3641 C   0  0  0  0  0  0  0  0  0  0  0  0
    2.1241   -0.0912   -1.4740 C   0  0  0  0  0  0  0  0  0  0  0  0
    1.9085   -0.6028    0.9655 C   0  0  0  0  0  0  0  0  0  0  0  0
   -2.2159    1.6371    1.1113 H   0  0  0  0  0  0  0  0  0  0  0  0
   -2.7456    1.0240   -0.4592 H   0  0  0  0  0  0  0  0  0  0  0  0
   -3.2874    0.2484    1.0285 H   0  0  0  0  0  0  0  0  0  0  0  0
   -0.9110   -0.3902    1.5212 H   0  0  0  0  0  0  0  0  0  0  0  0
   -1.9466   -1.4291   -1.1546 H   0  0  0  0  0  0  0  0  0  0  0  0
   -2.6155   -1.8810    0.4130 H   0  0  0  0  0  0  0  0  0  0  0  0
   -0.9668   -2.3241    0.0111 H   0  0  0  0  0  0  0  0  0  0  0  0
   -0.4299    0.5180   -1.3439 H   0  0  0  0  0  0  0  0  0  0  0  0
    1.2061    2.1442   -0.2127 H   0  0  0  0  0  0  0  0  0  0  0  0
    0.3871    1.7727    1.3052 H   0  0  0  0  0  0  0  0  0  0  0  0
   -0.4964    2.5117   -0.0309 H   0  0  0  0  0  0  0  0  0  0  0  0
    0.8166   -1.5230   -0.6214 H   0  0  0  0  0  0  0  0  0  0  0  0
    2.9266   -0.8194   -1.5684 H   0  0  0  0  0  0  0  0  0  0  0  0
    1.6064   -0.0277   -2.4285 H   0  0  0  0  0  0  0  0  0  0  0  0
    2.5743    0.8752   -1.2618 H   0  0  0  0  0  0  0  0  0  0  0  0
    1.2444   -0.9075    1.7699 H   0  0  0  0  0  0  0  0  0  0  0  0
    2.3524    0.3545    1.2243 H   0  0  0  0  0  0  0  0  0  0  0  0
    2.7082   -1.3369    0.8920 H   0  0  0  0  0  0  0  0  0  0  0  0
  1  2  1  0  0  0  0
  2  3  1  0  0  0  0
  2  4  1  0  0  0  0
  4  5  1  0  0  0  0
  4  6  1  0  0  0  0
  6  7  1  0  0  0  0
  6  8  1  0  0  0  0
  1  9  1  0  0  0  0
  1 10  1  0  0  0  0
  1 11  1  0  0  0  0
  2 12  1  0  0  0  0
  3 13  1  0  0  0  0
  3 14  1  0  0  0  0
  3 15  1  0  0  0  0
  4 16  1  0  0  0  0
  5 17  1  0  0  0  0
  5 18  1  0  0  0  0
  5 19  1  0  0  0  0
  6 20  1  0  0  0  0
  7 21  1  0  0  0  0
  7 22  1  0  0  0  0
  7 23  1  0  0  0  0
  8 24  1  0  0  0  0
  8 25  1  0  0  0  0
  8 26  1  0  0  0  0
M  END
