17
 xtb: 6.7.1 (edcfbbe)
C           -2.11352029563121        1.23985395073246        0.67865497279814
C           -1.96082949297161       -0.05537322995710       -0.10756250951472
C           -0.57211775844521       -0.62388499848240       -0.20642948859584
O           -0.33449414356951       -1.76779262662901       -0.56826135608690
O            0.38754210500310        0.25362675273188        0.11999618063925
C            1.76955459451985       -0.22194921884396        0.01763013207444
C            2.66282973349936        0.92862977503357        0.40176876992725
H           -1.76382198861038        1.12189366109748        1.70827812587933
H           -1.55654496897242        2.05985110293250        0.21883599880262
H           -3.16860162694512        1.52549850199202        0.71109531440775
H           -2.29699340347958        0.07992367466765       -1.14443367013397
H           -2.58866178511881       -0.84997314991231        0.30837548153034
H            1.88698201470919       -1.07711901725021        0.68978742185079
H            1.94273059142766       -0.55219067485451       -1.01079624260265
H            2.52640438480808        1.77632652210896       -0.27592747326492
H            2.46423957959992        1.25632875699009        1.42628324988251
H            3.70629126381614        0.60551112856001        0.34110862143874
