 xtb: 6.7.1 (edcfbbe)
          04112511133D

 22 22  0     0  0            999 V2000
   -2.2526    0.9226    1.3296 C   0  0  0  0  0  0  0  0  0  0  0  0
   -2.3524   -0.0308    0.1418 C   0  0  0  0  0  0  0  0  0  0  0  0
   -2.4480    0.7416   -1.1713 C   0  0  0  0  0  0  0  0  0  0  0  0
   -1.2006   -1.0443    0.1272 C   0  0  0  0  0  0  0  0  0  0  0  0
    0.1998   -0.5167    0.0198 C   0  0  0  0  0  0  0  0  0  0  0  0
    1.2717   -1.4168    0.0993 C   0  0  0  0  0  0  0  0  0  0  0  0
    2.5318   -1.0351    0.0052 N   0  0  0  0  0  0  0  0  0  0  0  0
    2.7560    0.2640   -0.1690 C   0  0  0  0  0  0  0  0  0  0  0  0
    1.7076    1.1649   -0.2469 C   0  0  0  0  0  0  0  0  0  0  0  0
    0.4423    0.7765   -0.1551 N   0  0  0  0  0  0  0  0  0  0  0  0
   -3.1344    1.5569    1.3746 H   0  0  0  0  0  0  0  0  0  0  0  0
   -1.3753    1.5546    1.2305 H   0  0  0  0  0  0  0  0  0  0  0  0
   -2.1812    0.3678    2.2628 H   0  0  0  0  0  0  0  0  0  0  0  0
   -3.2714   -0.6194    0.2559 H   0  0  0  0  0  0  0  0  0  0  0  0
   -1.5712    1.3679   -1.3020 H   0  0  0  0  0  0  0  0  0  0  0  0
   -2.5195    0.0578   -2.0144 H   0  0  0  0  0  0  0  0  0  0  0  0
   -3.3319    1.3748   -1.1682 H   0  0  0  0  0  0  0  0  0  0  0  0
   -1.3492   -1.7316   -0.7113 H   0  0  0  0  0  0  0  0  0  0  0  0
   -1.2489   -1.6461    1.0395 H   0  0  0  0  0  0  0  0  0  0  0  0
    1.1053   -2.4758    0.2430 H   0  0  0  0  0  0  0  0  0  0  0  0
    3.7896    0.5674   -0.2457 H   0  0  0  0  0  0  0  0  0  0  0  0
    1.8704    2.2242   -0.3876 H   0  0  0  0  0  0  0  0  0  0  0  0
  1  2  1  0  0  0  0
  2  3  1  0  0  0  0
  2  4  1  0  0  0  0
  4  5  1  0  0  0  0
  5  6  4  0  0  0  0
  6  7  4  0  0  0  0
  7  8  4  0  0  0  0
  8  9  4  0  0  0  0
  5 10  4  0  0  0  0
  9 10  4  0  0  0  0
  1 11  1  0  0  0  0
  1 12  1  0  0  0  0
  1 13  1  0  0  0  0
  2 14  1  0  0  0  0
  3 15  1  0  0  0  0
  3 16  1  0  0  0  0
  3 17  1  0  0  0  0
  4 18  1  0  0  0  0
  4 19  1  0  0  0  0
  6 20  1  0  0  0  0
  8 21  1  0  0  0  0
  9 22  1  0  0  0  0
M  END
