  26
 
 C          1.2400390430        0.9939469675        1.2519268936
 C          1.4788234443        0.1556127374       -0.0015478226
 C          1.2105168705        0.9503757581       -1.2774317259
 C          0.6140236926       -1.0802701610        0.0251605769
 N         -0.6371330213       -1.1890844936        0.0379373438
 O         -1.3983770700       -0.0119147355        0.0421959884
 C         -2.7548867925       -0.2596124619       -0.0455653205
 O         -3.2559151402       -1.3353316595       -0.1840821019
 N         -3.3990214374        0.9245401674        0.0320554092
 C         -4.8370670901        1.0172811597       -0.0115725726
 S          3.2159045152       -0.5027160158       -0.0090888531
 C          4.2379824872        0.9953252822       -0.0615650686
 H          1.5232397459        0.4308105406        2.1390645088
 H          1.8198586504        1.9140402368        1.2150499845
 H          0.1866888339        1.2551565209        1.3251677906
 H          1.4676489080        0.3545034944       -2.1511201678
 H          1.7941466358        1.8686785337       -1.2888564902
 H          0.1564572088        1.2140968114       -1.3323589920
 H          1.1187709934       -2.0377669348        0.0323402646
 H         -2.8596049782        1.7613615130        0.1804110707
 H         -5.2352161202        1.3651600631        0.9440773740
 H         -5.2209670877        0.0198764774       -0.2192370802
 H         -5.1522145954        1.7003726626       -0.8022857419
 H          5.2648917077        0.6441861516       -0.0601963402
 H          4.0602618186        1.6053338781        0.8186834087
 H          4.0449850084        1.5530603860       -0.9728493146
          26
        -39.32012490
 C          2.9684067652        1.7513486209       -0.0245024166
 C          1.9005246157        0.6730089647       -0.1950892567
 C          1.5418142341        0.5046954112       -1.6609204278
 C          0.7791670947        0.9114992741        0.7565796480
 N         -0.4595881359        0.6600839860        0.7179946915
 O         -0.9924831376        0.1075521148       -0.4564781878
 C         -2.3498094836       -0.1054108262       -0.4422603824
 O         -2.8517774649       -0.6128974934       -1.4090626530
 N         -2.9777956865        0.2840770759        0.6773042604
 C         -4.3977271727        0.1321545584        0.8591500365
 S          2.6687286173       -0.8856817843        0.5013869998
 C          1.3992850828       -2.1448689003        0.2054989847
 H          3.8364040120        1.5111788737       -0.6333100604
 H          2.5748405112        2.7162210773       -0.3387904210
 H          3.2881844791        1.8201217413        1.0128962807
 H          2.4422133235        0.2827395094       -2.2305823979
 H          1.1101399330        1.4313886919       -2.0360163561
 H          0.8172117718       -0.2873758802       -1.8192342031
 H          1.0783496561        1.3157146010        1.7175535972
 H         -2.4146140240        0.6962784153        1.4077127862
 H         -4.8713130611        1.1031128745        1.0147965383
 H         -4.6091574961       -0.5113749335        1.7151767747
 H         -4.7987243638       -0.3247936082       -0.0440196436
 H          1.2774524989       -2.3152593130       -0.8595266699
 H          0.4607358445       -1.8432718463        0.6598407957
 H          1.7654509338       -3.0472765154        0.6850912688
