 26

C      0.767000     0.374000     0.688000
C      2.134000     0.419000     0.004000
C      2.106000     1.369000    -1.195000
C      2.604000    -0.945000    -0.469000
N      1.936000    -1.647000    -1.325000
O      0.785000    -0.934000    -1.688000
C      0.074000    -1.673000    -2.594000
O      0.401000    -2.779000    -3.013000
N     -1.062000    -0.981000    -2.961000
C     -2.033000    -1.480000    -3.908000
S      3.386000     1.005000     1.206000
C      2.653000     2.616000     1.559000
H      0.786000    -0.306000     1.548000
H      0.465000     1.358000     1.068000
H     -0.016000     0.018000     0.009000
H      3.076000     1.418000    -1.703000
H      1.821000     2.387000    -0.902000
H      1.378000     1.027000    -1.940000
H      3.551000    -1.324000    -0.040000
H     -1.224000    -0.070000    -2.543000
H     -2.799000    -2.051000    -3.383000
H     -1.542000    -2.125000    -4.637000
H     -2.503000    -0.645000    -4.430000
H      3.269000     3.153000     2.285000
H      1.650000     2.485000     1.970000
H      2.590000     3.203000     0.640000
