 xtb: 6.7.1 (edcfbbe)
          04112511493D

 17 16  0     0  0            999 V2000
   -3.2153    0.4964    0.0997 C   0  0  0  0  0  0  0  0  0  0  0  0
   -1.8766   -0.2079    0.2759 C   0  0  0  0  0  0  0  0  0  0  0  0
   -0.7356    0.5978   -0.3550 C   0  0  0  0  0  0  0  0  0  0  0  0
    0.5649   -0.1538   -0.2563 C   0  0  0  0  0  0  0  0  0  0  0  0
    0.7424   -1.2883   -0.6493 O   0  0  0  0  0  0  0  0  0  0  0  0
    1.5046    0.5753    0.3336 O   0  0  0  0  0  0  0  0  0  0  0  0
    2.8085    0.0125    0.5124 C   0  0  0  0  0  0  0  0  0  0  0  0
   -3.1919    1.4787    0.5645 H   0  0  0  0  0  0  0  0  0  0  0  0
   -3.4466    0.6186   -0.9553 H   0  0  0  0  0  0  0  0  0  0  0  0
   -4.0083   -0.0853    0.5615 H   0  0  0  0  0  0  0  0  0  0  0  0
   -1.9059   -1.1948   -0.1902 H   0  0  0  0  0  0  0  0  0  0  0  0
   -1.6719   -0.3476    1.3392 H   0  0  0  0  0  0  0  0  0  0  0  0
   -0.6211    1.5652    0.1324 H   0  0  0  0  0  0  0  0  0  0  0  0
   -0.9518    0.7510   -1.4142 H   0  0  0  0  0  0  0  0  0  0  0  0
    3.4657    0.3951   -0.2679 H   0  0  0  0  0  0  0  0  0  0  0  0
    2.7545   -1.0751    0.4516 H   0  0  0  0  0  0  0  0  0  0  0  0
    3.1537    0.3333    1.4918 H   0  0  0  0  0  0  0  0  0  0  0  0
  1  2  1  0  0  0  0
  2  3  1  0  0  0  0
  3  4  1  0  0  0  0
  4  5  2  0  0  0  0
  4  6  1  0  0  0  0
  6  7  1  0  0  0  0
  1  8  1  0  0  0  0
  1  9  1  0  0  0  0
  1 10  1  0  0  0  0
  2 11  1  0  0  0  0
  2 12  1  0  0  0  0
  3 13  1  0  0  0  0
  3 14  1  0  0  0  0
  7 15  1  0  0  0  0
  7 16  1  0  0  0  0
  7 17  1  0  0  0  0
M  END
