  17
 
 C          1.9570000000       -1.0270000000       -1.6040000000
 C          1.8850000000       -1.0360000000       -0.1120000000
 C          2.9210000000       -1.6310000000        0.6080000000
 C          2.8780000000       -1.6520000000        2.0020000000
 C          1.8000000000       -1.0790000000        2.6760000000
 C          0.7640000000       -0.4840000000        1.9550000000
 C          0.8070000000       -0.4630000000        0.5610000000
 C         -0.2880000000        0.1650000000       -0.1670000000
 O         -1.4450000000        0.1990000000        0.2580000000
 H          2.4720000000       -0.1250000000       -1.9490000000
 H          2.4960000000       -1.9060000000       -1.9750000000
 H          0.9540000000       -1.0530000000       -2.0440000000
 H          3.7660000000       -2.0800000000        0.0930000000
 H          3.6840000000       -2.1150000000        2.5640000000
 H          1.7660000000       -1.0950000000        3.7610000000
 H         -0.0710000000       -0.0410000000        2.4920000000
 H         -0.0480000000        0.6280000000       -1.1470000000
