 xtb: 6.7.1 (edcfbbe)
          04112512143D

 21 20  0     0  0            999 V2000
    2.2586   -1.0036   -0.6773 C   0  0  0  0  0  0  0  0  0  0  0  0
    1.6017    0.3310   -0.3476 C   0  0  0  0  0  0  0  0  0  0  0  0
    0.3522    0.2046    0.5366 C   0  0  0  0  0  0  0  0  0  0  0  0
    0.6309   -0.3336    1.4516 H   0  0  0  0  0  0  0  0  0  0  0  0
   -0.8155   -0.5632   -0.1220 C   0  0  0  0  0  0  0  0  0  0  0  0
   -1.9151   -0.7995    0.9132 C   0  0  0  0  0  0  0  0  0  0  0  0
   -1.3916    0.1578   -1.3402 C   0  0  0  0  0  0  0  0  0  0  0  0
   -0.0497    1.4825    1.0009 O   0  0  0  0  0  0  0  0  0  0  0  0
    3.2037   -0.8344   -1.1870 H   0  0  0  0  0  0  0  0  0  0  0  0
    1.6266   -1.6034   -1.3264 H   0  0  0  0  0  0  0  0  0  0  0  0
    2.4540   -1.5666    0.2323 H   0  0  0  0  0  0  0  0  0  0  0  0
    2.3133    0.9561    0.1976 H   0  0  0  0  0  0  0  0  0  0  0  0
    1.3465    0.8533   -1.2718 H   0  0  0  0  0  0  0  0  0  0  0  0
   -0.4256   -1.5342   -0.4394 H   0  0  0  0  0  0  0  0  0  0  0  0
   -1.5432   -1.4081    1.7341 H   0  0  0  0  0  0  0  0  0  0  0  0
   -2.2523    0.1511    1.3208 H   0  0  0  0  0  0  0  0  0  0  0  0
   -2.7627   -1.3076    0.4607 H   0  0  0  0  0  0  0  0  0  0  0  0
   -2.1723   -0.4522   -1.7882 H   0  0  0  0  0  0  0  0  0  0  0  0
   -0.6298    0.3354   -2.0947 H   0  0  0  0  0  0  0  0  0  0  0  0
   -1.8361    1.1074   -1.0504 H   0  0  0  0  0  0  0  0  0  0  0  0
   -0.2399    2.0385    0.2327 H   0  0  0  0  0  0  0  0  0  0  0  0
  1  2  1  0  0  0  0
  2  3  1  0  0  0  0
  3  4  1  0  0  0  0
  3  5  1  0  0  0  0
  5  6  1  0  0  0  0
  5  7  1  0  0  0  0
  3  8  1  0  0  0  0
  1  9  1  0  0  0  0
  1 10  1  0  0  0  0
  1 11  1  0  0  0  0
  2 12  1  0  0  0  0
  2 13  1  0  0  0  0
  5 14  1  0  0  0  0
  6 15  1  0  0  0  0
  6 16  1  0  0  0  0
  6 17  1  0  0  0  0
  7 18  1  0  0  0  0
  7 19  1  0  0  0  0
  7 20  1  0  0  0  0
  8 21  1  0  0  0  0
M  END
