27
 xtb: 6.7.1 (edcfbbe)
C           -3.55896274749572       -0.59215729776569       -1.82090693839584
C           -2.99874479942770       -1.57310803336120       -0.79563105240558
C           -2.50953535530650       -0.96880440640606        0.52686892792582
H           -2.06335006122446       -1.78404065330352        1.09879394404544
C           -3.61649720642600       -0.38368331104338        1.39753378392151
N           -1.34556016767745       -0.04949034773984        0.29817862044524
C           -0.07224058179822       -0.67064611846149        0.25964377019625
O            0.03208993252905       -1.88778038024656        0.40822336122565
C            1.05018948141280        0.21505919576467        0.04912983221361
C            0.88893980496642        1.55179089881146       -0.14360395331787
N           -0.38925160252328        2.03648823561863       -0.12876633675086
C           -1.54129542780175        1.29662922799013        0.04722600441615
O           -2.63936847107869        1.84639776339452       -0.01394389445731
C            1.94810403879552        2.56520395844942       -0.38237683970471
Br           2.76565347026544       -0.59741392909231        0.03109281036659
H           -3.90397006494321       -1.13876740677197       -2.70435599600462
H           -4.40849266986790       -0.02652675179664       -1.42732923632569
H           -2.79854557666621        0.12161423763457       -2.15331469066519
H           -3.76617123207451       -2.31052019517771       -0.52986175941766
H           -2.16957456974539       -2.13255025010454       -1.24399354107310
H           -4.29891933731819        0.27074793758120        0.85688402268653
H           -4.19013308502283       -1.22809700999817        1.79305742917147
H           -3.20504264488784        0.16711793025150        2.24820425395232
H           -0.53631913002153        3.02436750966019       -0.29813957177492
H            2.94298257770519        2.12854160411743       -0.33569772483800
H            1.86917620303038        3.36211341694624        0.36478201858320
H            1.80325153085770        3.02033338600346       -1.36860480925949
