 xtb: 6.7.1 (edcfbbe)
          04112512153D

 21 20  0     0  0            999 V2000
    1.9404   -1.0464    0.2579 C   0  0  0  0  0  0  0  0  0  0  0  0
    1.2499    0.1578    0.8930 C   0  0  0  0  0  0  0  0  0  0  0  0
    0.1793    0.8412    0.0210 C   0  0  0  0  0  0  0  0  0  0  0  0
   -0.0430    1.8111    0.5038 H   0  0  0  0  0  0  0  0  0  0  0  0
   -1.1820    0.1301   -0.1248 C   0  0  0  0  0  0  0  0  0  0  0  0
   -1.1061   -1.2228   -0.8277 C   0  0  0  0  0  0  0  0  0  0  0  0
   -1.8991    0.0031    1.2164 C   0  0  0  0  0  0  0  0  0  0  0  0
    0.6585    1.0915   -1.2910 O   0  0  0  0  0  0  0  0  0  0  0  0
    1.3339   -1.9425    0.3319 H   0  0  0  0  0  0  0  0  0  0  0  0
    2.8859   -1.2365    0.7605 H   0  0  0  0  0  0  0  0  0  0  0  0
    2.1394   -0.8556   -0.7938 H   0  0  0  0  0  0  0  0  0  0  0  0
    0.7989   -0.1215    1.8444 H   0  0  0  0  0  0  0  0  0  0  0  0
    2.0106    0.9144    1.1069 H   0  0  0  0  0  0  0  0  0  0  0  0
   -1.7675    0.7987   -0.7681 H   0  0  0  0  0  0  0  0  0  0  0  0
   -0.4551   -1.1561   -1.6945 H   0  0  0  0  0  0  0  0  0  0  0  0
   -0.7344   -1.9916   -0.1571 H   0  0  0  0  0  0  0  0  0  0  0  0
   -2.0985   -1.5169   -1.1617 H   0  0  0  0  0  0  0  0  0  0  0  0
   -1.3883   -0.7056    1.8633 H   0  0  0  0  0  0  0  0  0  0  0  0
   -2.9127   -0.3550    1.0564 H   0  0  0  0  0  0  0  0  0  0  0  0
   -1.9486    0.9642    1.7230 H   0  0  0  0  0  0  0  0  0  0  0  0
    1.4690    1.6144   -1.2321 H   0  0  0  0  0  0  0  0  0  0  0  0
  1  2  1  0  0  0  0
  2  3  1  0  0  0  0
  3  4  1  0  0  0  0
  3  5  1  0  0  0  0
  5  6  1  0  0  0  0
  5  7  1  0  0  0  0
  3  8  1  0  0  0  0
  1  9  1  0  0  0  0
  1 10  1  0  0  0  0
  1 11  1  0  0  0  0
  2 12  1  0  0  0  0
  2 13  1  0  0  0  0
  5 14  1  0  0  0  0
  6 15  1  0  0  0  0
  6 16  1  0  0  0  0
  6 17  1  0  0  0  0
  7 18  1  0  0  0  0
  7 19  1  0  0  0  0
  7 20  1  0  0  0  0
  8 21  1  0  0  0  0
M  END
