 xtb: 6.7.1 (edcfbbe)
          04112511573D

 14 13  0     0  0            999 V2000
    1.9471   -0.2111    0.5222 C   0  0  0  0  0  0  0  0  0  0  0  0
    1.0067   -0.2731   -0.5299 O   0  0  0  0  0  0  0  0  0  0  0  0
    0.0280    0.7519   -0.5107 C   0  0  0  0  0  0  0  0  0  0  0  0
   -1.1180    0.4747    0.4663 C   0  0  0  0  0  0  0  0  0  0  0  0
   -1.9138   -0.6433   -0.0208 N   0  0  0  0  0  0  0  0  0  0  0  0
    2.6637   -1.0061    0.3297 H   0  0  0  0  0  0  0  0  0  0  0  0
    1.4802   -0.3714    1.4990 H   0  0  0  0  0  0  0  0  0  0  0  0
    2.4601    0.7568    0.5263 H   0  0  0  0  0  0  0  0  0  0  0  0
    0.4985    1.7149   -0.2751 H   0  0  0  0  0  0  0  0  0  0  0  0
   -0.3738    0.7802   -1.5251 H   0  0  0  0  0  0  0  0  0  0  0  0
   -0.7013    0.3071    1.4738 H   0  0  0  0  0  0  0  0  0  0  0  0
   -1.7609    1.3576    0.5102 H   0  0  0  0  0  0  0  0  0  0  0  0
   -2.5695   -0.9427    0.6917 H   0  0  0  0  0  0  0  0  0  0  0  0
   -1.2952   -1.4225   -0.2243 H   0  0  0  0  0  0  0  0  0  0  0  0
  1  2  1  0  0  0  0
  2  3  1  0  0  0  0
  3  4  1  0  0  0  0
  4  5  1  0  0  0  0
  1  6  1  0  0  0  0
  1  7  1  0  0  0  0
  1  8  1  0  0  0  0
  3  9  1  0  0  0  0
  3 10  1  0  0  0  0
  4 11  1  0  0  0  0
  4 12  1  0  0  0  0
  5 13  1  0  0  0  0
  5 14  1  0  0  0  0
M  END
