 xtb: 6.7.1 (edcfbbe)
          04112511563D

 21 21  0     0  0            999 V2000
   -2.5616   -0.8308   -0.9672 C   0  0  0  0  0  0  0  0  0  0  0  0
   -2.4830    0.4825   -0.1993 C   0  0  0  0  0  0  0  0  0  0  0  0
   -1.5080    0.4042    0.9839 C   0  0  0  0  0  0  0  0  0  0  0  0
   -0.0954    0.1940    0.5192 C   0  0  0  0  0  0  0  0  0  0  0  0
    0.5020   -1.0586    0.5780 C   0  0  0  0  0  0  0  0  0  0  0  0
    1.7928   -1.2500    0.1160 C   0  0  0  0  0  0  0  0  0  0  0  0
    2.5057   -0.1881   -0.4132 C   0  0  0  0  0  0  0  0  0  0  0  0
    1.9209    1.0659   -0.4754 C   0  0  0  0  0  0  0  0  0  0  0  0
    0.6311    1.2533   -0.0125 C   0  0  0  0  0  0  0  0  0  0  0  0
   -2.8960   -1.6345   -0.3149 H   0  0  0  0  0  0  0  0  0  0  0  0
   -3.2623   -0.7460   -1.7943 H   0  0  0  0  0  0  0  0  0  0  0  0
   -1.5858   -1.0966   -1.3679 H   0  0  0  0  0  0  0  0  0  0  0  0
   -3.4743    0.7414    0.1782 H   0  0  0  0  0  0  0  0  0  0  0  0
   -2.1624    1.2783   -0.8750 H   0  0  0  0  0  0  0  0  0  0  0  0
   -1.8078   -0.4148    1.6402 H   0  0  0  0  0  0  0  0  0  0  0  0
   -1.5680    1.3364    1.5499 H   0  0  0  0  0  0  0  0  0  0  0  0
   -0.0483   -1.8922    0.9905 H   0  0  0  0  0  0  0  0  0  0  0  0
    2.2431   -2.2305    0.1694 H   0  0  0  0  0  0  0  0  0  0  0  0
    3.5128   -0.3359   -0.7740 H   0  0  0  0  0  0  0  0  0  0  0  0
    2.4728    1.8996   -0.8844 H   0  0  0  0  0  0  0  0  0  0  0  0
    0.1809    2.2347   -0.0604 H   0  0  0  0  0  0  0  0  0  0  0  0
  1  2  1  0  0  0  0
  2  3  1  0  0  0  0
  3  4  1  0  0  0  0
  4  5  4  0  0  0  0
  5  6  4  0  0  0  0
  6  7  4  0  0  0  0
  7  8  4  0  0  0  0
  4  9  4  0  0  0  0
  8  9  4  0  0  0  0
  1 10  1  0  0  0  0
  1 11  1  0  0  0  0
  1 12  1  0  0  0  0
  2 13  1  0  0  0  0
  2 14  1  0  0  0  0
  3 15  1  0  0  0  0
  3 16  1  0  0  0  0
  5 17  1  0  0  0  0
  6 18  1  0  0  0  0
  7 19  1  0  0  0  0
  8 20  1  0  0  0  0
  9 21  1  0  0  0  0
M  END
