 xtb: 6.7.1 (edcfbbe)
          04112511523D

 18 17  0     0  0            999 V2000
    0.9739   -1.2015    0.5943 C   0  0  0  0  0  0  0  0  0  0  0  0
    0.9316    0.2945    0.2917 C   0  0  0  0  0  0  0  0  0  0  0  0
    2.2565    0.7441   -0.3235 C   0  0  0  0  0  0  0  0  0  0  0  0
   -0.2284    0.6508   -0.6461 C   0  0  0  0  0  0  0  0  0  0  0  0
   -1.6165    0.5094   -0.0137 C   0  0  0  0  0  0  0  0  0  0  0  0
   -2.0631   -0.8221    0.1387 O   0  0  0  0  0  0  0  0  0  0  0  0
    1.7663   -1.4209    1.3062 H   0  0  0  0  0  0  0  0  0  0  0  0
    1.1664   -1.7655   -0.3162 H   0  0  0  0  0  0  0  0  0  0  0  0
    0.0291   -1.5329    1.0160 H   0  0  0  0  0  0  0  0  0  0  0  0
    0.7853    0.8353    1.2338 H   0  0  0  0  0  0  0  0  0  0  0  0
    2.4212    0.2433   -1.2751 H   0  0  0  0  0  0  0  0  0  0  0  0
    3.0832    0.5005    0.3392 H   0  0  0  0  0  0  0  0  0  0  0  0
    2.2585    1.8181   -0.4945 H   0  0  0  0  0  0  0  0  0  0  0  0
   -0.1735    0.0274   -1.5416 H   0  0  0  0  0  0  0  0  0  0  0  0
   -0.1189    1.6917   -0.9562 H   0  0  0  0  0  0  0  0  0  0  0  0
   -1.6126    0.9284    0.9957 H   0  0  0  0  0  0  0  0  0  0  0  0
   -2.3452    1.0722   -0.6139 H   0  0  0  0  0  0  0  0  0  0  0  0
   -2.1226   -1.2327   -0.7350 H   0  0  0  0  0  0  0  0  0  0  0  0
  1  2  1  0  0  0  0
  2  3  1  0  0  0  0
  2  4  1  0  0  0  0
  4  5  1  0  0  0  0
  5  6  1  0  0  0  0
  1  7  1  0  0  0  0
  1  8  1  0  0  0  0
  1  9  1  0  0  0  0
  2 10  1  0  0  0  0
  3 11  1  0  0  0  0
  3 12  1  0  0  0  0
  3 13  1  0  0  0  0
  4 14  1  0  0  0  0
  4 15  1  0  0  0  0
  5 16  1  0  0  0  0
  5 17  1  0  0  0  0
  6 18  1  0  0  0  0
M  END
