 15

C     -3.626000     0.676000     2.260000
O     -2.677000     0.547000     1.196000
C     -1.873000    -0.552000     1.258000
O     -1.893000    -1.418000     2.123000
C     -0.937000    -0.555000     0.088000
C      0.332000     0.216000     0.198000
C      0.356000    -1.283000     0.219000
H     -4.216000     1.585000     2.115000
H     -3.099000     0.719000     3.216000
H     -4.290000    -0.192000     2.250000
H     -1.446000    -0.577000    -0.856000
H      0.736000     0.713000    -0.675000
H      0.509000     0.737000     1.131000
H      0.776000    -1.792000    -0.640000
H      0.548000    -1.771000     1.167000
