  15
 
 C         -3.6260000000        0.6760000000        2.2600000000
 O         -2.6770000000        0.5470000000        1.1960000000
 C         -1.8730000000       -0.5520000000        1.2580000000
 O         -1.8930000000       -1.4180000000        2.1230000000
 C         -0.9370000000       -0.5550000000        0.0880000000
 C          0.3320000000        0.2160000000        0.1980000000
 C          0.3560000000       -1.2830000000        0.2190000000
 H         -4.2160000000        1.5850000000        2.1150000000
 H         -3.0990000000        0.7190000000        3.2160000000
 H         -4.2900000000       -0.1920000000        2.2500000000
 H         -1.4460000000       -0.5770000000       -0.8560000000
 H          0.7360000000        0.7130000000       -0.6750000000
 H          0.5090000000        0.7370000000        1.1310000000
 H          0.7760000000       -1.7920000000       -0.6400000000
 H          0.5480000000       -1.7710000000        1.1670000000
