 xtb: 6.7.1 (edcfbbe)
          04112512333D

 21 20  0     0  0            999 V2000
    1.7932   -1.0748    0.5086 C   0  0  0  0  0  0  0  0  0  0  0  0
    1.3269    0.3565    0.7572 C   0  0  0  0  0  0  0  0  0  0  0  0
    0.1764    0.8796   -0.1224 C   0  0  0  0  0  0  0  0  0  0  0  0
   -0.0186    1.9073    0.2156 H   0  0  0  0  0  0  0  0  0  0  0  0
   -1.1796    0.1318   -0.0443 C   0  0  0  0  0  0  0  0  0  0  0  0
   -1.2420   -1.1558   -0.8669 C   0  0  0  0  0  0  0  0  0  0  0  0
   -1.5935   -0.1255    1.4023 C   0  0  0  0  0  0  0  0  0  0  0  0
    0.5942    1.0471   -1.4669 O   0  0  0  0  0  0  0  0  0  0  0  0
    1.0685   -1.7976    0.8718 H   0  0  0  0  0  0  0  0  0  0  0  0
    2.7263   -1.2435    1.0416 H   0  0  0  0  0  0  0  0  0  0  0  0
    1.9761   -1.2589   -0.5474 H   0  0  0  0  0  0  0  0  0  0  0  0
    1.0382    0.4674    1.8021 H   0  0  0  0  0  0  0  0  0  0  0  0
    2.1682    1.0315    0.5772 H   0  0  0  0  0  0  0  0  0  0  0  0
   -1.9091    0.8213   -0.4880 H   0  0  0  0  0  0  0  0  0  0  0  0
   -2.2530   -1.5552   -0.8236 H   0  0  0  0  0  0  0  0  0  0  0  0
   -1.0095   -0.9547   -1.9098 H   0  0  0  0  0  0  0  0  0  0  0  0
   -0.5640   -1.9140   -0.4902 H   0  0  0  0  0  0  0  0  0  0  0  0
   -2.6204   -0.4815    1.4332 H   0  0  0  0  0  0  0  0  0  0  0  0
   -1.5306    0.7891    1.9874 H   0  0  0  0  0  0  0  0  0  0  0  0
   -0.9598   -0.8786    1.8619 H   0  0  0  0  0  0  0  0  0  0  0  0
    0.9154    0.1951   -1.7923 H   0  0  0  0  0  0  0  0  0  0  0  0
  1  2  1  0  0  0  0
  2  3  1  0  0  0  0
  3  4  1  0  0  0  0
  3  5  1  0  0  0  0
  5  6  1  0  0  0  0
  5  7  1  0  0  0  0
  3  8  1  0  0  0  0
  1  9  1  0  0  0  0
  1 10  1  0  0  0  0
  1 11  1  0  0  0  0
  2 12  1  0  0  0  0
  2 13  1  0  0  0  0
  5 14  1  0  0  0  0
  6 15  1  0  0  0  0
  6 16  1  0  0  0  0
  6 17  1  0  0  0  0
  7 18  1  0  0  0  0
  7 19  1  0  0  0  0
  7 20  1  0  0  0  0
  8 21  1  0  0  0  0
M  END
