 xtb: 6.7.1 (edcfbbe)
          04112511403D

 21 21  0     0  0            999 V2000
   -3.0254    1.4032    0.0093 C   0  0  0  0  0  0  0  0  0  0  0  0
   -2.5849    0.0508   -0.0069 O   0  0  0  0  0  0  0  0  0  0  0  0
   -1.2727   -0.3198   -0.0029 C   0  0  0  0  0  0  0  0  0  0  0  0
   -1.0954   -1.7087   -0.0043 C   0  0  0  0  0  0  0  0  0  0  0  0
    0.1561   -2.2765   -0.0029 C   0  0  0  0  0  0  0  0  0  0  0  0
    1.2887   -1.4766   -0.0001 C   0  0  0  0  0  0  0  0  0  0  0  0
    1.1361   -0.1035    0.0012 C   0  0  0  0  0  0  0  0  0  0  0  0
   -0.1383    0.4934   -0.0001 C   0  0  0  0  0  0  0  0  0  0  0  0
   -0.2003    1.8673    0.0010 O   0  0  0  0  0  0  0  0  0  0  0  0
    2.1695    0.8071    0.0030 O   0  0  0  0  0  0  0  0  0  0  0  0
    3.4958    0.3185    0.0011 C   0  0  0  0  0  0  0  0  0  0  0  0
   -3.6446    1.5354    0.8985 H   0  0  0  0  0  0  0  0  0  0  0  0
   -3.6339    1.5605   -0.8832 H   0  0  0  0  0  0  0  0  0  0  0  0
   -2.2071    2.1140    0.0241 H   0  0  0  0  0  0  0  0  0  0  0  0
   -1.9869   -2.3142   -0.0072 H   0  0  0  0  0  0  0  0  0  0  0  0
    0.2599   -3.3493   -0.0044 H   0  0  0  0  0  0  0  0  0  0  0  0
    2.2665   -1.9267    0.0009 H   0  0  0  0  0  0  0  0  0  0  0  0
    0.7110    2.2057    0.0025 H   0  0  0  0  0  0  0  0  0  0  0  0
    3.6954   -0.2730   -0.8956 H   0  0  0  0  0  0  0  0  0  0  0  0
    3.6959   -0.2796    0.8932 H   0  0  0  0  0  0  0  0  0  0  0  0
    4.1262    1.2049    0.0042 H   0  0  0  0  0  0  0  0  0  0  0  0
  1  2  1  0  0  0  0
  2  3  1  0  0  0  0
  3  4  4  0  0  0  0
  4  5  4  0  0  0  0
  5  6  4  0  0  0  0
  6  7  4  0  0  0  0
  3  8  4  0  0  0  0
  7  8  4  0  0  0  0
  8  9  1  0  0  0  0
  7 10  1  0  0  0  0
 10 11  1  0  0  0  0
  1 12  1  0  0  0  0
  1 13  1  0  0  0  0
  1 14  1  0  0  0  0
  4 15  1  0  0  0  0
  5 16  1  0  0  0  0
  6 17  1  0  0  0  0
  9 18  1  0  0  0  0
 11 19  1  0  0  0  0
 11 20  1  0  0  0  0
 11 21  1  0  0  0  0
M  END
