 xtb: 6.7.1 (edcfbbe)
          04112512293D

 24 24  0     0  0            999 V2000
   -3.5365   -0.3287   -0.3449 C   0  0  0  0  0  0  0  0  0  0  0  0
   -2.1738   -0.5878    0.2872 C   0  0  0  0  0  0  0  0  0  0  0  0
   -1.1471    0.4611   -0.1362 C   0  0  0  0  0  0  0  0  0  0  0  0
    0.2186    0.2542    0.5187 C   0  0  0  0  0  0  0  0  0  0  0  0
    0.8965   -1.0590    0.0918 C   0  0  0  0  0  0  0  0  0  0  0  0
    2.3868   -0.7334    0.0658 C   0  0  0  0  0  0  0  0  0  0  0  0
    2.4088    0.6711   -0.5280 C   0  0  0  0  0  0  0  0  0  0  0  0
    1.2237    1.3696    0.1462 C   0  0  0  0  0  0  0  0  0  0  0  0
   -4.2534   -1.0838   -0.0320 H   0  0  0  0  0  0  0  0  0  0  0  0
   -3.9143    0.6478   -0.0497 H   0  0  0  0  0  0  0  0  0  0  0  0
   -3.4632   -0.3529   -1.4299 H   0  0  0  0  0  0  0  0  0  0  0  0
   -2.2704   -0.5757    1.3754 H   0  0  0  0  0  0  0  0  0  0  0  0
   -1.8241   -1.5799   -0.0032 H   0  0  0  0  0  0  0  0  0  0  0  0
   -1.0326    0.4374   -1.2228 H   0  0  0  0  0  0  0  0  0  0  0  0
   -1.5234    1.4505    0.1364 H   0  0  0  0  0  0  0  0  0  0  0  0
    0.0759    0.2459    1.6037 H   0  0  0  0  0  0  0  0  0  0  0  0
    0.6619   -1.8821    0.7649 H   0  0  0  0  0  0  0  0  0  0  0  0
    0.5686   -1.3324   -0.9128 H   0  0  0  0  0  0  0  0  0  0  0  0
    2.7844   -0.7154    1.0818 H   0  0  0  0  0  0  0  0  0  0  0  0
    2.9626   -1.4489   -0.5195 H   0  0  0  0  0  0  0  0  0  0  0  0
    3.3498    1.1896   -0.3509 H   0  0  0  0  0  0  0  0  0  0  0  0
    2.2474    0.6131   -1.6055 H   0  0  0  0  0  0  0  0  0  0  0  0
    1.5573    1.8889    1.0448 H   0  0  0  0  0  0  0  0  0  0  0  0
    0.7700    2.1081   -0.5137 H   0  0  0  0  0  0  0  0  0  0  0  0
  1  2  1  0  0  0  0
  2  3  1  0  0  0  0
  3  4  1  0  0  0  0
  4  5  1  0  0  0  0
  5  6  1  0  0  0  0
  6  7  1  0  0  0  0
  4  8  1  0  0  0  0
  7  8  1  0  0  0  0
  1  9  1  0  0  0  0
  1 10  1  0  0  0  0
  1 11  1  0  0  0  0
  2 12  1  0  0  0  0
  2 13  1  0  0  0  0
  3 14  1  0  0  0  0
  3 15  1  0  0  0  0
  4 16  1  0  0  0  0
  5 17  1  0  0  0  0
  5 18  1  0  0  0  0
  6 19  1  0  0  0  0
  6 20  1  0  0  0  0
  7 21  1  0  0  0  0
  7 22  1  0  0  0  0
  8 23  1  0  0  0  0
  8 24  1  0  0  0  0
M  END
