 xtb: 6.7.1 (edcfbbe)
          04112512143D

 21 20  0     0  0            999 V2000
    2.7043   -0.3326    0.2726 C   0  0  0  0  0  0  0  0  0  0  0  0
    1.3407   -0.7199   -0.2905 C   0  0  0  0  0  0  0  0  0  0  0  0
    0.2380    0.2268    0.2023 C   0  0  0  0  0  0  0  0  0  0  0  0
    0.2258    0.2261    1.2987 H   0  0  0  0  0  0  0  0  0  0  0  0
   -1.1647   -0.1571   -0.3154 C   0  0  0  0  0  0  0  0  0  0  0  0
   -1.5527   -1.5884    0.0490 C   0  0  0  0  0  0  0  0  0  0  0  0
   -2.1995    0.8172    0.2491 C   0  0  0  0  0  0  0  0  0  0  0  0
    0.5434    1.5682   -0.1422 O   0  0  0  0  0  0  0  0  0  0  0  0
    3.4844   -0.9543   -0.1586 H   0  0  0  0  0  0  0  0  0  0  0  0
    2.7153   -0.4596    1.3527 H   0  0  0  0  0  0  0  0  0  0  0  0
    2.9237    0.7096    0.0534 H   0  0  0  0  0  0  0  0  0  0  0  0
    1.3698   -0.6887   -1.3828 H   0  0  0  0  0  0  0  0  0  0  0  0
    1.1046   -1.7375    0.0156 H   0  0  0  0  0  0  0  0  0  0  0  0
   -1.1549   -0.0620   -1.4083 H   0  0  0  0  0  0  0  0  0  0  0  0
   -2.5997   -1.7544   -0.1929 H   0  0  0  0  0  0  0  0  0  0  0  0
   -0.9616   -2.3156   -0.5000 H   0  0  0  0  0  0  0  0  0  0  0  0
   -1.4164   -1.7575    1.1147 H   0  0  0  0  0  0  0  0  0  0  0  0
   -2.3148    0.6590    1.3192 H   0  0  0  0  0  0  0  0  0  0  0  0
   -3.1640    0.6699   -0.2300 H   0  0  0  0  0  0  0  0  0  0  0  0
   -1.8814    1.8446    0.0903 H   0  0  0  0  0  0  0  0  0  0  0  0
    0.5976    1.6281   -1.1064 H   0  0  0  0  0  0  0  0  0  0  0  0
  1  2  1  0  0  0  0
  2  3  1  0  0  0  0
  3  4  1  0  0  0  0
  3  5  1  0  0  0  0
  5  6  1  0  0  0  0
  5  7  1  0  0  0  0
  3  8  1  0  0  0  0
  1  9  1  0  0  0  0
  1 10  1  0  0  0  0
  1 11  1  0  0  0  0
  2 12  1  0  0  0  0
  2 13  1  0  0  0  0
  5 14  1  0  0  0  0
  6 15  1  0  0  0  0
  6 16  1  0  0  0  0
  6 17  1  0  0  0  0
  7 18  1  0  0  0  0
  7 19  1  0  0  0  0
  7 20  1  0  0  0  0
  8 21  1  0  0  0  0
M  END
