22
 xtb: 6.7.1 (edcfbbe)
C           -3.22162689045440        0.98058483181005       -0.00020834252037
C           -2.80364768870650        0.41751699977143        1.20260884334807
C           -1.67047696318662       -0.39276118324839        1.23748178686637
C           -0.94915487961200       -0.64656228413769        0.07081424340098
C           -1.37350721372963       -0.07945922932023       -1.13336541089572
C           -2.50409015307374        0.73040914660401       -1.16932375707920
C            0.30124933022777       -1.49004012688335        0.11003891390632
N            1.50786269619215       -0.66001214609781        0.03539422782508
C            1.98885376287461        0.15931002637444        1.03244277801325
C            3.01962910014037        0.86268693777444        0.46659860886347
N            3.17673655574225        0.50746891716164       -0.85924627501870
C            2.23900705941283       -0.40086145064155       -1.08100262067185
H           -4.10493384730680        1.61090295619547       -0.02858471235975
H           -3.35957860649343        0.60841412108902        2.11513669818317
H           -1.34313610187376       -0.83211347154022        2.17559930420443
H           -0.81323423518221       -0.27471336762835       -2.04408290771686
H           -2.82924218683327        1.16363968134944       -2.11002658345075
H            0.34046822079489       -2.07566814810394        1.03222235170953
H            0.33286372748379       -2.17932946483000       -0.73801790463531
H            1.56727326361220        0.15511730272206        2.02656335289488
H            3.65990775258468        1.59441007445095        0.93881938694562
H            2.05581609407235       -0.91213893816203       -2.01672959821021
