 xtb: 6.7.1 (edcfbbe)
          04112511413D

 14 13  0     0  0            999 V2000
   -1.0289   -0.4513   -0.3368 C   0  0  0  0  0  0  0  0  0  0  0  0
    0.1306    0.3495    0.2697 C   0  0  0  0  0  0  0  0  0  0  0  0
    1.4714   -0.0935   -0.3343 C   0  0  0  0  0  0  0  0  0  0  0  0
    1.8102   -1.4153    0.0015 O   0  0  0  0  0  0  0  0  0  0  0  0
   -0.0153    1.7320    0.0263 O   0  0  0  0  0  0  0  0  0  0  0  0
   -2.2668   -0.1115    0.2473 O   0  0  0  0  0  0  0  0  0  0  0  0
   -0.8164   -1.5216   -0.2459 H   0  0  0  0  0  0  0  0  0  0  0  0
   -1.1183   -0.1993   -1.3963 H   0  0  0  0  0  0  0  0  0  0  0  0
    0.1537    0.1766    1.3604 H   0  0  0  0  0  0  0  0  0  0  0  0
    2.2440    0.6168   -0.0187 H   0  0  0  0  0  0  0  0  0  0  0  0
    1.4001   -0.0605   -1.4236 H   0  0  0  0  0  0  0  0  0  0  0  0
    2.0516   -1.4601    0.9377 H   0  0  0  0  0  0  0  0  0  0  0  0
   -0.9560    1.9541    0.1066 H   0  0  0  0  0  0  0  0  0  0  0  0
   -2.3121   -0.4701    1.1447 H   0  0  0  0  0  0  0  0  0  0  0  0
  1  2  1  0  0  0  0
  2  3  1  0  0  0  0
  3  4  1  0  0  0  0
  2  5  1  0  0  0  0
  1  6  1  0  0  0  0
  1  7  1  0  0  0  0
  1  8  1  0  0  0  0
  2  9  1  0  0  0  0
  3 10  1  0  0  0  0
  3 11  1  0  0  0  0
  4 12  1  0  0  0  0
  5 13  1  0  0  0  0
  6 14  1  0  0  0  0
M  END
