14
 xtb: 6.7.1 (edcfbbe)
C           -3.45971732485215       -0.59763476804348       -0.15148734820187
C           -2.07494720803355       -0.29743952960562        0.41315382179284
C           -1.39031261684019        0.84732358700022       -0.32678169385251
C           -0.04396235500927        1.24537717162233        0.22468202219314
Br           1.33133770247799       -0.19433713395960       -0.01609102317332
H           -4.11468218667751        0.27719582098281       -0.07537198026708
H           -3.39873738250886       -0.87833616229427       -1.20870570196239
H           -3.93748355541678       -1.42210922447495        0.38654590194315
H           -1.44946282853527       -1.19553670070562        0.35178385820176
H           -2.15351074215950       -0.03883586555363        1.47693071634693
H           -1.30529307774956        0.61568738557503       -1.39486155262402
H           -2.01583937553031        1.74988183986755       -0.25156129133148
H           -0.06757566142398        1.42317270670607        1.30010491290146
H            0.37983161455944        2.10674232225455       -0.28954946008132
