  22
 
 C          3.3692191483       -0.1285032400        0.0344254983
 N          1.9524898923       -0.4037642210       -0.0090905566
 C          1.5901734645       -1.7964741484       -0.0341562793
 C          1.0716359300        0.6237496819        0.0026291606
 O          1.4220479587        1.7891274388        0.0248293600
 C         -0.3814746653        0.2494336137       -0.0131987890
 C         -1.0821749856        0.2251678180       -1.2125518426
 C         -2.4390318978       -0.0478778108       -1.2172134587
 C         -3.1037077038       -0.2890103511       -0.0266257412
 C         -2.4103863083       -0.2532863774        1.1716931823
 C         -1.0531715189        0.0164878713        1.1809303965
 H          3.8659926524       -0.5531928533       -0.8408194717
 H          3.8131513535       -0.5552089992        0.9371018593
 H          3.5015487608        0.9516909191        0.0402785060
 H          1.9028144582       -2.2887546203        0.8919940916
 H          2.0874677568       -2.2935035160       -0.8716147429
 H          0.5147392365       -1.9076462726       -0.1466940060
 H         -0.5615950143        0.4225320757       -2.1382539852
 H         -2.9790665972       -0.0684847759       -2.1523809828
 H         -4.1630741355       -0.4992103279       -0.0319176987
 H         -2.9283077398       -0.4334004554        2.1022663989
 H         -0.5103258134        0.0517468729        2.1143605812
          22
        -31.86644816
 C          3.3604510693       -0.1218643995        0.0120787861
 N          1.9463182870       -0.3624143466        0.1777162931
 C          1.6029839702       -1.5922767454        0.8426010149
 C          1.0596290023        0.5753749292       -0.2334982127
 O          1.4092982008        1.6409712406       -0.7085356503
 C         -0.3921039559        0.2328378569       -0.0942859272
 C         -0.9652364145       -0.7635594443       -0.8771722781
 C         -2.3244294817       -1.0102279732       -0.8003305717
 C         -3.1181000649       -0.2679003609        0.0584227365
 C         -2.5526628502        0.7321255032        0.8315968814
 C         -1.1955231423        0.9894076458        0.7496231359
 H          3.8112022111       -0.9176957854       -0.5853315202
 H          3.8594735021       -0.0805918199        0.9834111363
 H          3.4823932880        0.8317676359       -0.4978894488
 H          1.8526758749       -2.4527202374        0.2139829964
 H          0.5411738028       -1.6191542563        1.0739704875
 H          2.1687990324       -1.6743883046        1.7748513499
 H         -0.3461457100       -1.3367033417       -1.5524021040
 H         -2.7656028298       -1.7826404325       -1.4131895012
 H         -4.1784397273       -0.4641781771        0.1189191918
 H         -3.1714107449        1.3177341969        1.4954049375
 H         -0.7494502442        1.7772971148        1.3380892299
