26
 xtb: 6.7.1 (edcfbbe)
C            4.19652094604965       -0.23655493999300       -0.06685827041877
N            2.75189851877396       -0.41527368832989        0.04844452024707
C            2.33192725190431       -1.76941375498775        0.39908894743781
C            1.90672789931563        0.61257685887015       -0.16157912280701
O            2.29223862352342        1.76169649917150       -0.46271117861299
C            0.43938896445939        0.34819878389194       -0.01800066675080
C           -0.19007764083702        0.53505492727681        1.21607057190446
C           -1.55942557426148        0.36075392413822        1.33743956930077
C           -2.31939549205223       -0.00348008771174        0.22025120531419
C           -1.70157643682047       -0.18843163974911       -1.01827938192522
C           -0.32354382002295       -0.00905945235415       -1.12584726211059
O           -3.66256145131565       -0.15709130413524        0.44231893555256
C           -4.47772989985784       -0.52978427608544       -0.68055630490918
H            4.42582221970257        0.79599725102483       -0.32547568707539
H            4.59247139596369       -0.90111737958715       -0.84273366457753
H            4.67812376431048       -0.48855210867418        0.88438001905570
H            2.76994906458069       -2.05560342307962        1.36200623278781
H            2.67952034972304       -2.47538301861004       -0.36370943639619
H            1.24745034530241       -1.83249129591686        0.47107108934227
H            0.39736774366370        0.81264181391718        2.08633281796164
H           -2.05559185313027        0.50086838971121        2.29235493067357
H           -2.26979596275182       -0.47070036488874       -1.89573954855045
H            0.15791213373768       -0.15785077558813       -2.08803621406346
H           -4.17318192364678       -1.50330806755670       -1.08062514542166
H           -4.43094269606574        0.23030248402256       -1.46830608818900
H           -5.49586399223217       -0.59532427338494       -0.29563311006990
