15
 xtb: 6.7.1 (edcfbbe)
C           -1.91182768171777       -0.93259734907515        0.25712712919911
C           -1.22036130372471       -0.02435016912417       -0.74508894160002
S            0.00004703960736        1.13862963888829       -0.00124862961051
C            1.22031351507953       -0.02283101435162        0.74518467509584
C            1.91170118562167       -0.93310707565737       -0.25524695069685
H           -1.20461215411066       -1.60730736417681        0.74876160889269
H           -2.42694124223150       -0.35197619194282        1.02831929233053
H           -2.65387111812560       -1.55241247986664       -0.25961394233187
H           -1.94637175642114        0.62978040954307       -1.23954219585074
H           -0.72450476912136       -0.60564225168067       -1.52895619243927
H            1.94635394141658        0.63234295417044        1.23821232152810
H            0.72448871302844       -0.60248547980618        1.53028726842610
H            2.42672493784822       -0.35413074050494       -1.02773684657849
H            2.65383601854747       -1.55173688207227        0.26277481745824
H            1.20452660822340       -1.60896082514564       -0.74537203223530
