  15
 
 C          1.9310000000       -1.0140000000       -1.6030000000
 C          1.8850000000       -1.0360000000       -0.1120000000
 C          2.9210000000       -1.6310000000        0.6080000000
 C          2.8780000000       -1.6520000000        2.0020000000
 C          1.8000000000       -1.0790000000        2.6760000000
 C          0.7640000000       -0.4840000000        1.9550000000
 C          0.8070000000       -0.4630000000        0.5610000000
 H          2.4390000000       -0.1080000000       -1.9480000000
 H          2.4640000000       -1.8890000000       -1.9910000000
 H          0.9210000000       -1.0370000000       -2.0250000000
 H          3.7650000000       -2.0800000000        0.0910000000
 H          3.6850000000       -2.1150000000        2.5630000000
 H          1.7660000000       -1.0950000000        3.7610000000
 H         -0.0760000000       -0.0380000000        2.4790000000
 H         -0.0050000000        0.0030000000        0.0080000000
