  21
 
 C         -3.0664681345        0.3875332225        0.0425375021
 C         -1.6062710233        0.0474631090        0.0400115568
 C         -1.1801354770       -1.2725347271        0.0452104639
 C          0.1696376727       -1.5716355089        0.0219159718
 C          1.1292942882       -0.5702850400       -0.0070943405
 C          0.7113907899        0.7631781475       -0.0129713217
 C         -0.6454986871        1.0487614193        0.0101225050
 C          1.7150192353        1.8758662591       -0.0407996391
 C          2.5870520704       -0.9165927383       -0.0286527430
 H         -3.4299817817        0.4810784235       -0.9816504709
 H         -3.6450658719       -0.3909040697        0.5348581306
 H         -3.2440302684        1.3335277411        0.5494788728
 H         -1.9072023225       -2.0718192354        0.0689759671
 H          0.4845935496       -2.6059527329        0.0282992823
 H         -0.9645829570        2.0824207451        0.0063906022
 H          2.3354592302        1.8113510901       -0.9342518405
 H          1.2189797303        2.8433364517       -0.0338580993
 H          2.3749570928        1.8195483515        0.8248253958
 H          3.0663584460       -0.5104571443       -0.9189462004
 H          3.0953555030       -0.4988285125        0.8404146364
 H          2.7260238734       -1.9943393840       -0.0240101881
          21
        -25.39131424
 C         -3.0643825765        0.3927043199        0.0005551222
 C         -1.6065101138        0.0422724815       -0.0002969726
 C         -1.1778971725       -1.2755171822       -0.0003130469
 C          0.1738846832       -1.5712509619       -0.0002418726
 C          1.1311019909       -0.5683533468        0.0000394009
 C          0.7100417862        0.7651376840       -0.0001720519
 C         -0.6466712119        1.0467902012       -0.0003896953
 C          1.7117880686        1.8799784139       -0.0000342469
 C          2.5900599921       -0.9105195299        0.0004425985
 H         -3.6798121699       -0.5033848275       -0.0124784593
 H         -3.3149954679        0.9731913251        0.8879805025
 H         -3.3109628659        0.9966854422       -0.8720752593
 H         -1.9018780449       -2.0779820303       -0.0003980155
 H          0.4906039602       -2.6050626998       -0.0000701657
 H         -0.9704649558        2.0790594631       -0.0001202621
 H          1.2137591614        2.8462052467       -0.0022808693
 H          2.3506976580        1.8218908434        0.8806814414
 H          2.3539442540        1.8194083875       -0.8782052503
 H          3.0817762433       -0.4982639245        0.8813498891
 H          2.7322206882       -1.9883122135       -0.0014840543
 H          3.0832780978       -0.4948653310       -0.8780044742
