  21
 
 C          1.9310000000       -1.0140000000       -1.6030000000
 C          1.8850000000       -1.0360000000       -0.1120000000
 C          2.9210000000       -1.6310000000        0.6080000000
 C          2.8780000000       -1.6520000000        2.0020000000
 C          1.8000000000       -1.0790000000        2.6760000000
 C          0.7640000000       -0.4840000000        1.9550000000
 C          0.8070000000       -0.4630000000        0.5610000000
 C         -0.4020000000        0.1340000000        2.6550000000
 C          1.7750000000       -1.1150000000        4.1690000000
 H          2.4390000000       -0.1080000000       -1.9480000000
 H          2.4640000000       -1.8890000000       -1.9910000000
 H          0.9210000000       -1.0370000000       -2.0250000000
 H          3.7650000000       -2.0800000000        0.0910000000
 H          3.6920000000       -2.1160000000        2.5540000000
 H         -0.0010000000        0.0000000000       -0.0010000000
 H         -0.2030000000        1.1920000000        2.8620000000
 H         -1.3120000000        0.0630000000        2.0470000000
 H         -0.6110000000       -0.3750000000        3.6030000000
 H          2.2660000000       -0.2250000000        4.5790000000
 H          0.7460000000       -1.1530000000        4.5470000000
 H          2.2890000000       -2.0060000000        4.5520000000
