17
 xtb: 6.7.1 (edcfbbe)
C           -2.13061652471360        1.36570008040447        0.09554046883436
C           -1.93297728745291       -0.13102540452834        0.30083312555675
C           -0.54919812837889       -0.66473350968155        0.05087402929821
O           -0.30537840337862       -1.84666105250625       -0.14843188227733
O            0.40128574556737        0.27983899565559        0.09994705740775
C            1.78182306023734       -0.17201012677799       -0.08904031125282
C            2.66665419686047        1.04199476682830        0.02937696999990
H           -1.88021264592183        1.66127374820037       -0.92723138527771
H           -3.17785909938404        1.62360139535306        0.27480806022691
H           -1.51698456639669        1.95277296763827        0.78271851412810
H           -2.60849126548336       -0.71346790730392       -0.33302293523123
H           -2.17216320030768       -0.41157387131960        1.33588809203773
H            2.00559681302871       -0.91944793509376        0.67766755516852
H            1.85632526238901       -0.64059121336160       -1.07471877589541
H            3.70757659865233        0.73874838461689       -0.11713465478931
H            2.41612048431144        1.78772373772427       -0.73047759062746
H            2.57841183527423        1.49854492227584        1.01939011267552
