20
 xtb: 6.7.1 (edcfbbe)
C            1.56020290211076       -2.29908062431755       -0.00169387959810
O            1.85021268426661       -0.88746631357988        0.00219355483995
C            0.87563361840920        0.08298663281581        0.00085598789668
C            1.38238708656873        1.38353876958408        0.00066724469942
C            0.54787238141249        2.49509019547154        0.00001503979329
C           -0.82920633203273        2.31345725686292       -0.00065600399261
C           -1.35567401280899        1.02380650849717       -0.00056707689813
C           -0.52671874728596       -0.10186569615616        0.00030906742848
O           -1.01114061855207       -1.38303663061387        0.00095973982040
C           -2.43481057782105       -1.55704262322350       -0.00022121102358
H            1.01391641970007       -2.59331100927741       -0.90059393966009
H            1.01204708195119       -2.59783758262299        0.89454745357198
H            2.54163462965255       -2.77758350530274       -0.00188379500234
H            2.46171711371275        1.50071647247911        0.00111790201059
H            0.97816073141443        3.49093125641272       -0.00001752355376
H           -1.50254711564111        3.16408381809141       -0.00119280585149
H           -2.43072394915824        0.89404796750693       -0.00098058249103
H           -2.59413574019057       -2.63599362679333        0.00010023223850
H           -2.88668004842731       -1.12062651986789       -0.89823927597864
H           -2.88826367565337       -1.11986471970720        0.89662230786180
