 22

C      1.885000    -1.036000    -0.112000
C      2.921000    -1.631000     0.608000
C      2.878000    -1.652000     2.002000
C      1.800000    -1.079000     2.676000
C      0.764000    -0.484000     1.955000
C      0.807000    -0.463000     0.561000
Cl    -0.441000     0.256000    -0.399000
Cl    -0.581000     0.229000     2.794000
Cl     1.816000    -1.144000     4.405000
C      4.040000    -2.226000    -0.091000
C      3.945000    -3.574000    -0.439000
C      4.995000    -4.195000    -1.113000
C      6.141000    -3.469000    -1.440000
C      6.235000    -2.122000    -1.093000
C      5.185000    -1.500000    -0.418000
Cl     5.284000     0.180000     0.030000
Cl     7.665000    -1.214000    -1.499000
Cl     7.444000    -4.259000    -2.283000
Cl     4.802000    -5.869000    -1.513000
H      1.922000    -1.020000    -1.200000
H      3.688000    -2.117000     2.562000
H      3.050000    -4.139000    -0.186000
