 xtb: 6.7.1 (edcfbbe)
          04112512213D

 14 13  0     0  0            999 V2000
   -2.7809    0.3129    0.0003 C   0  0  0  0  0  0  0  0  0  0  0  0
   -1.3010    0.6764   -0.0024 C   0  0  0  0  0  0  0  0  0  0  0  0
   -0.4288   -0.5759    0.0017 C   0  0  0  0  0  0  0  0  0  0  0  0
    1.0506   -0.3054    0.0006 C   0  0  0  0  0  0  0  0  0  0  0  0
    1.8938   -1.1814    0.0025 O   0  0  0  0  0  0  0  0  0  0  0  0
    1.3677    0.9768   -0.0024 O   0  0  0  0  0  0  0  0  0  0  0  0
   -3.3903    1.2124   -0.0031 H   0  0  0  0  0  0  0  0  0  0  0  0
   -3.0304   -0.2681    0.8848 H   0  0  0  0  0  0  0  0  0  0  0  0
   -3.0317   -0.2756   -0.8789 H   0  0  0  0  0  0  0  0  0  0  0  0
   -1.0704    1.2744   -0.8853 H   0  0  0  0  0  0  0  0  0  0  0  0
   -1.0689    1.2812    0.8753 H   0  0  0  0  0  0  0  0  0  0  0  0
   -0.6415   -1.1909    0.8796 H   0  0  0  0  0  0  0  0  0  0  0  0
   -0.6417   -1.1970   -0.8719 H   0  0  0  0  0  0  0  0  0  0  0  0
    2.3334    1.1243   -0.0030 H   0  0  0  0  0  0  0  0  0  0  0  0
  1  2  1  0  0  0  0
  2  3  1  0  0  0  0
  3  4  1  0  0  0  0
  4  5  2  0  0  0  0
  4  6  1  0  0  0  0
  1  7  1  0  0  0  0
  1  8  1  0  0  0  0
  1  9  1  0  0  0  0
  2 10  1  0  0  0  0
  2 11  1  0  0  0  0
  3 12  1  0  0  0  0
  3 13  1  0  0  0  0
  6 14  1  0  0  0  0
M  END
