 19

C      1.932000    -1.013000    -1.603000
C      1.885000    -1.036000    -0.112000
C      2.921000    -1.631000     0.608000
C      2.878000    -1.652000     2.002000
C      1.800000    -1.079000     2.676000
C      0.764000    -0.484000     1.955000
C      0.807000    -0.463000     0.561000
O     -0.297000     0.081000     2.597000
C      1.770000    -1.111000     4.168000
H      2.440000    -0.108000    -1.948000
H      2.464000    -1.888000    -1.991000
H      0.922000    -1.036000    -2.026000
H      3.765000    -2.079000     0.091000
H      3.691000    -2.117000     2.555000
H     -0.002000     0.001000     0.001000
H     -0.922000     0.447000     1.952000
H      2.260000    -0.220000     4.578000
H      0.740000    -1.148000     4.544000
H      2.283000    -2.001000     4.556000
