 xtb: 6.7.1 (edcfbbe)
          04112512143D

 21 20  0     0  0            999 V2000
    1.4919    0.1416   -1.1790 C   0  0  0  0  0  0  0  0  0  0  0  0
    1.1144   -0.2302    0.2509 C   0  0  0  0  0  0  0  0  0  0  0  0
    0.9756   -1.3204    0.3129 H   0  0  0  0  0  0  0  0  0  0  0  0
   -0.1387    0.4818    0.7831 C   0  0  0  0  0  0  0  0  0  0  0  0
   -1.5024    0.1300    0.1625 C   0  0  0  0  0  0  0  0  0  0  0  0
   -1.7640    0.8299   -1.1702 C   0  0  0  0  0  0  0  0  0  0  0  0
   -1.7126   -1.3769    0.0279 C   0  0  0  0  0  0  0  0  0  0  0  0
    2.2363    0.1227    1.0563 O   0  0  0  0  0  0  0  0  0  0  0  0
    1.4348    1.2176   -1.3170 H   0  0  0  0  0  0  0  0  0  0  0  0
    2.5170   -0.1743   -1.3583 H   0  0  0  0  0  0  0  0  0  0  0  0
    0.8443   -0.3544   -1.8932 H   0  0  0  0  0  0  0  0  0  0  0  0
   -0.2001    0.2505    1.8513 H   0  0  0  0  0  0  0  0  0  0  0  0
    0.0252    1.5586    0.6946 H   0  0  0  0  0  0  0  0  0  0  0  0
   -2.2514    0.5072    0.8702 H   0  0  0  0  0  0  0  0  0  0  0  0
   -1.1363    0.4316   -1.9604 H   0  0  0  0  0  0  0  0  0  0  0  0
   -1.5771    1.8975   -1.0855 H   0  0  0  0  0  0  0  0  0  0  0  0
   -2.8026    0.6878   -1.4611 H   0  0  0  0  0  0  0  0  0  0  0  0
   -1.5127   -1.8798    0.9711 H   0  0  0  0  0  0  0  0  0  0  0  0
   -2.7412   -1.5834   -0.2581 H   0  0  0  0  0  0  0  0  0  0  0  0
   -1.0599   -1.7936   -0.7349 H   0  0  0  0  0  0  0  0  0  0  0  0
    2.0488   -0.0858    1.9809 H   0  0  0  0  0  0  0  0  0  0  0  0
  1  2  1  0  0  0  0
  2  3  1  0  0  0  0
  2  4  1  0  0  0  0
  4  5  1  0  0  0  0
  5  6  1  0  0  0  0
  5  7  1  0  0  0  0
  2  8  1  0  0  0  0
  1  9  1  0  0  0  0
  1 10  1  0  0  0  0
  1 11  1  0  0  0  0
  4 12  1  0  0  0  0
  4 13  1  0  0  0  0
  5 14  1  0  0  0  0
  6 15  1  0  0  0  0
  6 16  1  0  0  0  0
  6 17  1  0  0  0  0
  7 18  1  0  0  0  0
  7 19  1  0  0  0  0
  7 20  1  0  0  0  0
  8 21  1  0  0  0  0
M  END
