 xtb: 6.7.1 (edcfbbe)
          04112511553D

 13 12  0     0  0            999 V2000
   -1.5663   -0.8486    0.0957 C   0  0  0  0  0  0  0  0  0  0  0  0
   -1.2556    0.5319    0.1164 O   0  0  0  0  0  0  0  0  0  0  0  0
   -0.0472    0.8684   -0.5311 C   0  0  0  0  0  0  0  0  0  0  0  0
    1.2127    0.4844    0.2535 C   0  0  0  0  0  0  0  0  0  0  0  0
    1.5218   -0.8769    0.0268 O   0  0  0  0  0  0  0  0  0  0  0  0
   -1.6311   -1.2120   -0.9354 H   0  0  0  0  0  0  0  0  0  0  0  0
   -2.5327   -0.9446    0.5845 H   0  0  0  0  0  0  0  0  0  0  0  0
   -0.8157   -1.4359    0.6297 H   0  0  0  0  0  0  0  0  0  0  0  0
   -0.0027    0.3967   -1.5219 H   0  0  0  0  0  0  0  0  0  0  0  0
   -0.0822    1.9536   -0.6406 H   0  0  0  0  0  0  0  0  0  0  0  0
    1.0331    0.6696    1.3202 H   0  0  0  0  0  0  0  0  0  0  0  0
    2.0365    1.1215   -0.0897 H   0  0  0  0  0  0  0  0  0  0  0  0
    2.3517   -1.0974    0.4711 H   0  0  0  0  0  0  0  0  0  0  0  0
  1  2  1  0  0  0  0
  2  3  1  0  0  0  0
  3  4  1  0  0  0  0
  4  5  1  0  0  0  0
  1  6  1  0  0  0  0
  1  7  1  0  0  0  0
  1  8  1  0  0  0  0
  3  9  1  0  0  0  0
  3 10  1  0  0  0  0
  4 11  1  0  0  0  0
  4 12  1  0  0  0  0
  5 13  1  0  0  0  0
M  END
