  27
 
 C         -2.9820864387       -0.8017276536        2.0808393361
 C         -2.9583551344       -1.5313088779        0.7427744538
 C         -2.7252600327       -0.5788431032       -0.4328026968
 H         -3.5030592906        0.1918701412       -0.4225444470
 C         -2.7522674249       -1.3006041820       -1.7764828619
 N         -1.4626532779        0.1641681562       -0.2708355797
 C         -0.2626109174       -0.5421945398       -0.2267124738
 O         -0.2105576975       -1.7454875424       -0.3340828311
 C          0.9204823447        0.2883081462       -0.0432789468
 C          0.8620839747        1.6332158037        0.0694702783
 N         -0.3745719152        2.2101176225        0.0004173795
 C         -1.5672058194        1.5324849126       -0.1688582120
 O         -2.6080433934        2.1442721415       -0.2187919303
 C          2.0322167266        2.5379940180        0.2422411923
 Br         2.5499986827       -0.6628042508        0.0143897505
 H         -3.2500530483       -1.4899377728        2.8785462788
 H         -2.0053492633       -0.3806541049        2.3132624857
 H         -3.7083546130        0.0087126632        2.0627870837
 H         -2.1849786861       -2.2991575399        0.7493223930
 H         -3.9194018387       -2.0207386087        0.5780181570
 H         -2.5624910243       -0.5987244033       -2.5859005112
 H         -2.0033096332       -2.0866595023       -1.8038482865
 H         -3.7326099312       -1.7441083448       -1.9254177697
 H         -0.4632262700        3.2154298626        0.0710798639
 H          2.4127724919        2.8412277212       -0.7336093109
 H          2.8349790449        2.0274557660        0.7680466920
 H          1.7484755736        3.4313607147        0.7943525196
          27
        -44.03303941
 C         -2.7691131428       -1.2837524983       -2.0375687203
 C         -3.4952447289       -0.8472558587       -0.7703727045
 C         -2.5839844910       -0.8787269670        0.4589692169
 H         -2.1736959262       -1.8882279917        0.5693163261
 C         -3.3224466494       -0.4949980825        1.7369534528
 N         -1.4013013349       -0.0223398012        0.2643801599
 C         -0.1580503607       -0.6640298198        0.2539826226
 O         -0.0528733832       -1.8583907905        0.4126315708
 C          0.9727626059        0.2212763158        0.0406456131
 C          0.8385045270        1.5557341647       -0.1312577068
 N         -0.4259376128        2.0643725653       -0.1000439744
 C         -1.5847261052        1.3265906781        0.0916230140
 O         -2.6533393333        1.8895618688        0.0962953689
 C          1.9767582292        2.4902925021       -0.3508848319
 Br         2.6670988667       -0.6105702095        0.0168954666
 H         -2.3160303726       -2.2634991256       -1.9005837646
 H         -3.4653042481       -1.3377113533       -2.8707427182
 H         -1.9829064517       -0.5778414902       -2.3002334367
 H         -3.8996757855        0.1571228542       -0.8968072487
 H         -4.3274974883       -1.5256179913       -0.5766564519
 H         -3.7562242266        0.4965310623        1.6445325206
 H         -4.1182350143       -1.2114309430        1.9200624674
 H         -2.6420713375       -0.5088277628        2.5858417326
 H         -0.5737338323        3.0578615071       -0.2224523646
 H          1.6297057483        3.5145903100       -0.4559747819
 H          2.5267696776        2.2041172511       -1.2465158495
 H          2.6734225125        2.4316999247        0.4843725610
