 27

C     -6.254000    -3.093000    -4.723000
C     -5.042000    -2.911000    -3.818000
C     -5.056000    -1.571000    -3.072000
H     -5.060000    -0.748000    -3.796000
C     -3.826000    -1.434000    -2.180000
N     -6.261000    -1.422000    -2.264000
C     -6.516000    -2.360000    -1.253000
O     -5.784000    -3.316000    -0.997000
C     -7.774000    -2.137000    -0.467000
C     -8.562000    -1.090000    -0.765000
N     -8.226000    -0.226000    -1.780000
C     -7.096000    -0.330000    -2.569000
O     -6.863000     0.486000    -3.464000
C     -9.850000    -0.730000    -0.075000
Br    -8.129000    -3.379000     0.892000
H     -6.223000    -4.054000    -5.245000
H     -7.173000    -3.063000    -4.130000
H     -6.308000    -2.295000    -5.471000
H     -5.026000    -3.733000    -3.093000
H     -4.131000    -2.998000    -4.423000
H     -3.834000    -0.478000    -1.645000
H     -3.781000    -2.240000    -1.439000
H     -2.908000    -1.481000    -2.775000
H     -8.857000     0.549000    -1.965000
H     -9.637000    -0.064000     0.756000
H    -10.325000    -1.636000     0.291000
H    -10.510000    -0.237000    -0.783000
