 xtb: 6.7.1 (edcfbbe)
          04072505553D

 15 14  0     0  0            999 V2000
    1.8087   -0.9882   -0.0220 C   0  0  0  0  0  0  0  0  0  0  0  0
    1.8030    0.5208   -0.2351 C   0  0  0  0  0  0  0  0  0  0  0  0
    0.5520    1.2148    0.3062 C   0  0  0  0  0  0  0  0  0  0  0  0
   -0.7315    0.8681   -0.4374 C   0  0  0  0  0  0  0  0  0  0  0  0
   -1.4896   -0.6866    0.2011 S   0  0  0  0  0  0  0  0  0  0  0  0
    1.6607   -1.2252    1.0299 H   0  0  0  0  0  0  0  0  0  0  0  0
    2.7598   -1.4091   -0.3394 H   0  0  0  0  0  0  0  0  0  0  0  0
    1.0180   -1.4695   -0.5914 H   0  0  0  0  0  0  0  0  0  0  0  0
    1.8982    0.7371   -1.3018 H   0  0  0  0  0  0  0  0  0  0  0  0
    2.6715    0.9512    0.2683 H   0  0  0  0  0  0  0  0  0  0  0  0
    0.6988    2.2947    0.2271 H   0  0  0  0  0  0  0  0  0  0  0  0
    0.4287    0.9742    1.3652 H   0  0  0  0  0  0  0  0  0  0  0  0
   -1.4772    1.6474   -0.2878 H   0  0  0  0  0  0  0  0  0  0  0  0
   -0.5448    0.7319   -1.5020 H   0  0  0  0  0  0  0  0  0  0  0  0
   -2.5915   -0.6123   -0.5351 H   0  0  0  0  0  0  0  0  0  0  0  0
  1  2  1  0  0  0  0
  2  3  1  0  0  0  0
  3  4  1  0  0  0  0
  4  5  1  0  0  0  0
  1  6  1  0  0  0  0
  1  7  1  0  0  0  0
  1  8  1  0  0  0  0
  2  9  1  0  0  0  0
  2 10  1  0  0  0  0
  3 11  1  0  0  0  0
  3 12  1  0  0  0  0
  4 13  1  0  0  0  0
  4 14  1  0  0  0  0
  5 15  1  0  0  0  0
M  END
