 xtb: 6.7.1 (edcfbbe)
          04112511203D

 21 20  0     0  0            999 V2000
   -2.3965   -0.2298   -0.9365 C   0  0  0  0  0  0  0  0  0  0  0  0
   -1.7413    0.7264    0.0542 C   0  0  0  0  0  0  0  0  0  0  0  0
   -0.5837    0.1289    0.8585 C   0  0  0  0  0  0  0  0  0  0  0  0
    0.7753   -0.0854    0.1563 C   0  0  0  0  0  0  0  0  0  0  0  0
    1.2273    1.1593   -0.6081 C   0  0  0  0  0  0  0  0  0  0  0  0
    0.7868   -1.3083   -0.7667 C   0  0  0  0  0  0  0  0  0  0  0  0
    1.7598   -0.2753    1.1807 O   0  0  0  0  0  0  0  0  0  0  0  0
   -1.7489   -0.4352   -1.7830 H   0  0  0  0  0  0  0  0  0  0  0  0
   -3.3164    0.2079   -1.3179 H   0  0  0  0  0  0  0  0  0  0  0  0
   -2.6421   -1.1723   -0.4528 H   0  0  0  0  0  0  0  0  0  0  0  0
   -1.4097    1.6248   -0.4662 H   0  0  0  0  0  0  0  0  0  0  0  0
   -2.5009    1.0350    0.7772 H   0  0  0  0  0  0  0  0  0  0  0  0
   -0.3800    0.8033    1.6956 H   0  0  0  0  0  0  0  0  0  0  0  0
   -0.9085   -0.8267    1.2801 H   0  0  0  0  0  0  0  0  0  0  0  0
    2.2604    1.0255   -0.9186 H   0  0  0  0  0  0  0  0  0  0  0  0
    1.1759    2.0309    0.0390 H   0  0  0  0  0  0  0  0  0  0  0  0
    0.6115    1.3197   -1.4864 H   0  0  0  0  0  0  0  0  0  0  0  0
    0.3467   -2.1712   -0.2719 H   0  0  0  0  0  0  0  0  0  0  0  0
    1.8165   -1.5432   -1.0291 H   0  0  0  0  0  0  0  0  0  0  0  0
    0.2379   -1.1127   -1.6807 H   0  0  0  0  0  0  0  0  0  0  0  0
    1.5458   -1.0773    1.6756 H   0  0  0  0  0  0  0  0  0  0  0  0
  1  2  1  0  0  0  0
  2  3  1  0  0  0  0
  3  4  1  0  0  0  0
  4  5  1  0  0  0  0
  4  6  1  0  0  0  0
  4  7  1  0  0  0  0
  1  8  1  0  0  0  0
  1  9  1  0  0  0  0
  1 10  1  0  0  0  0
  2 11  1  0  0  0  0
  2 12  1  0  0  0  0
  3 13  1  0  0  0  0
  3 14  1  0  0  0  0
  5 15  1  0  0  0  0
  5 16  1  0  0  0  0
  5 17  1  0  0  0  0
  6 18  1  0  0  0  0
  6 19  1  0  0  0  0
  6 20  1  0  0  0  0
  7 21  1  0  0  0  0
M  END
