  24
 
 C         -2.0054151348        0.7304620239       -1.2575626860
 C         -1.5211129519       -0.0037918061        0.0008403395
 C         -2.0062255218        0.7373260188        1.2548705922
 C         -2.1430604219       -1.4029660364        0.0049392601
 C         -0.0003211054       -0.0360365186        0.0005221226
 C          0.7313576238       -1.2171407554       -0.0018410878
 C          2.1165442272       -1.2019598437       -0.0019965591
 C          2.8049776199       -0.0035865380       -0.0001200507
 C          2.0913853499        1.1822905518        0.0013620818
 C          0.7095996308        1.1625265345        0.0015471792
 H         -1.6440118264        0.2242126453       -2.1504232596
 H         -3.0930027875        0.7476560320       -1.2865713633
 H         -1.6484057029        1.7563384520       -1.2802982575
 H         -1.6500870788        0.2327912123        2.1508006398
 H         -1.6451332016        1.7617741176        1.2752495961
 H         -3.0938232401        0.7593416258        1.2800694834
 H         -1.8459792973       -1.9611577590        0.8899084245
 H         -3.2280069135       -1.3170097626        0.0113329875
 H         -1.8563015724       -1.9618106025       -0.8829588666
 H          0.2321281582       -2.1726010620       -0.0036934975
 H          2.6584342129       -2.1370624360       -0.0036218987
 H          3.8849976045        0.0078175599       -0.0000753063
 H          2.6133577685        2.1285764836        0.0023647969
 H          0.1807284609        2.1041712686        0.0024080087
          24
        -28.54515229
 C         -2.0003492534       -0.7299697408        1.2577891209
 C         -1.5145958075        0.0042227062       -0.0000134138
 C         -2.0021550912       -0.7341552240       -1.2546448825
 C         -2.1327850595        1.4050007894       -0.0022615949
 C          0.0063851134        0.0325898000       -0.0004100632
 C          0.7410300304        1.2118545222       -0.0001112569
 C          2.1261996635        1.1930681036       -0.0000383080
 C          2.8113762582       -0.0071286924       -0.0001657177
 C          2.0947364863       -1.1912228944       -0.0001454539
 C          0.7130497771       -1.1679249456       -0.0002380001
 H         -1.6449942411       -1.7563683070        1.2801201532
 H         -1.6384116554       -0.2247887653        2.1510021390
 H         -3.0879866071       -0.7456368017        1.2865451818
 H         -3.0898451907       -0.7518245121       -1.2803125969
 H         -1.6437097676       -0.2303914391       -2.1500673407
 H         -1.6450017769       -1.7599411163       -1.2755542164
 H         -3.2179297755        1.3218552092       -0.0025923190
 H         -1.8398140707        1.9641212044        0.8834024348
 H         -1.8390483638        1.9612572652       -0.8894962204
 H          0.2442262052        2.1685693937        0.0000944762
 H          2.6705308966        2.1267562281        0.0001243647
 H          3.8913740205       -0.0214865596       -0.0002781122
 H          2.6144544168       -2.1387385031       -0.0000798070
 H          0.1815312241       -2.1080382937       -0.0000532142
