 24

C     -1.006000     0.025000    -0.434000
C     -2.090000     0.330000     0.622000
C     -1.778000     1.683000     1.295000
C     -3.429000     0.495000    -0.134000
C     -2.108000    -0.784000     1.681000
C     -3.265000    -1.536000     1.884000
C     -3.281000    -2.546000     2.846000
C     -2.140000    -2.805000     3.604000
C     -0.982000    -2.053000     3.402000
C     -0.966000    -1.043000     2.440000
H     -1.197000    -0.931000    -0.933000
H     -0.962000     0.791000    -1.216000
H     -0.012000    -0.032000     0.026000
H     -2.519000     1.949000     2.056000
H     -0.801000     1.661000     1.794000
H     -1.757000     2.495000     0.559000
H     -4.249000     0.715000     0.560000
H     -3.386000     1.321000    -0.854000
H     -3.701000    -0.418000    -0.676000
H     -4.159000    -1.341000     1.298000
H     -4.182000    -3.131000     3.003000
H     -2.152000    -3.592000     4.353000
H     -0.094000    -2.254000     3.993000
H     -0.060000    -0.463000     2.289000
