 xtb: 6.7.1 (edcfbbe)
          04112511153D

 29 28  0     0  0            999 V2000
   -2.7241   -0.7865   -0.9726 C   0  0  0  0  0  0  0  0  0  0  0  0
   -1.9768   -0.2819    0.2599 C   0  0  0  0  0  0  0  0  0  0  0  0
   -2.9481    0.4343    1.1973 C   0  0  0  0  0  0  0  0  0  0  0  0
   -0.8300    0.6577   -0.1331 C   0  0  0  0  0  0  0  0  0  0  0  0
    0.3467   -0.0608   -0.8134 C   0  0  0  0  0  0  0  0  0  0  0  0
    1.6935    0.0056   -0.0683 C   0  0  0  0  0  0  0  0  0  0  0  0
    2.7255   -0.7788   -0.8873 C   0  0  0  0  0  0  0  0  0  0  0  0
    2.1744    1.4527    0.0628 C   0  0  0  0  0  0  0  0  0  0  0  0
    1.5791   -0.6358    1.3165 C   0  0  0  0  0  0  0  0  0  0  0  0
   -3.1879    0.0466   -1.4969 H   0  0  0  0  0  0  0  0  0  0  0  0
   -3.5045   -1.4874   -0.6844 H   0  0  0  0  0  0  0  0  0  0  0  0
   -2.0503   -1.2899   -1.6610 H   0  0  0  0  0  0  0  0  0  0  0  0
   -1.5541   -1.1412    0.7923 H   0  0  0  0  0  0  0  0  0  0  0  0
   -3.3626    1.3149    0.7108 H   0  0  0  0  0  0  0  0  0  0  0  0
   -3.7692   -0.2238    1.4721 H   0  0  0  0  0  0  0  0  0  0  0  0
   -2.4440    0.7507    2.1078 H   0  0  0  0  0  0  0  0  0  0  0  0
   -1.2281    1.4279   -0.7967 H   0  0  0  0  0  0  0  0  0  0  0  0
   -0.4847    1.1654    0.7674 H   0  0  0  0  0  0  0  0  0  0  0  0
    0.4970    0.3531   -1.8125 H   0  0  0  0  0  0  0  0  0  0  0  0
    0.0952   -1.1158   -0.9404 H   0  0  0  0  0  0  0  0  0  0  0  0
    3.6965   -0.7567   -0.3977 H   0  0  0  0  0  0  0  0  0  0  0  0
    2.4212   -1.8176   -0.9953 H   0  0  0  0  0  0  0  0  0  0  0  0
    2.8339   -0.3491   -1.8807 H   0  0  0  0  0  0  0  0  0  0  0  0
    3.1521    1.4820    0.5388 H   0  0  0  0  0  0  0  0  0  0  0  0
    2.2567    1.9148   -0.9184 H   0  0  0  0  0  0  0  0  0  0  0  0
    1.4897    2.0461    0.6625 H   0  0  0  0  0  0  0  0  0  0  0  0
    0.8678   -0.1036    1.9419 H   0  0  0  0  0  0  0  0  0  0  0  0
    2.5446   -0.6240    1.8173 H   0  0  0  0  0  0  0  0  0  0  0  0
    1.2517   -1.6695    1.2293 H   0  0  0  0  0  0  0  0  0  0  0  0
  1  2  1  0  0  0  0
  2  3  1  0  0  0  0
  2  4  1  0  0  0  0
  4  5  1  0  0  0  0
  5  6  1  0  0  0  0
  6  7  1  0  0  0  0
  6  8  1  0  0  0  0
  6  9  1  0  0  0  0
  1 10  1  0  0  0  0
  1 11  1  0  0  0  0
  1 12  1  0  0  0  0
  2 13  1  0  0  0  0
  3 14  1  0  0  0  0
  3 15  1  0  0  0  0
  3 16  1  0  0  0  0
  4 17  1  0  0  0  0
  4 18  1  0  0  0  0
  5 19  1  0  0  0  0
  5 20  1  0  0  0  0
  7 21  1  0  0  0  0
  7 22  1  0  0  0  0
  7 23  1  0  0  0  0
  8 24  1  0  0  0  0
  8 25  1  0  0  0  0
  8 26  1  0  0  0  0
  9 27  1  0  0  0  0
  9 28  1  0  0  0  0
  9 29  1  0  0  0  0
M  END
