  15
 
 C         -2.0755188958        0.0325980464       -0.0352492198
 C         -0.7237678796        0.6772519035       -0.0424916768
 C          0.4435900255        0.0485113819        0.0092725663
 C          1.7440198265        0.7962831952       -0.0208583923
 C          0.5826028981       -1.4456821305        0.0798552012
 H         -2.4284680601       -0.1025942418        0.9887151251
 H         -2.7942150456        0.6638602365       -0.5531365963
 H         -2.0580484657       -0.9398080933       -0.5207521011
 H         -0.7319337838        1.7589383536       -0.0797368686
 H          2.2915979948        0.6411614076        0.9094524085
 H          2.3678580388        0.4309828545       -0.8365863163
 H          1.5835457340        1.8632130328       -0.1541441054
 H          0.6817610352       -1.8625360380       -0.9232956192
 H          1.4757891527       -1.7130834010        0.6406207215
 H         -0.2768400618       -1.9059201032        0.5585080108
          15
        -15.78037118
 C         -2.0685903002        0.0706314792        0.0004074724
 C         -0.7065010999        0.6857203210       -0.0005449396
 C          0.4511768438        0.0373988597       -0.0003489381
 C          1.7611187143        0.7680960204        0.0004021291
 C          0.5566169672       -1.4644466779       -0.0001669549
 H         -2.6257961383        0.4009748318        0.8774805806
 H         -2.6244121737        0.3930666833       -0.8805173527
 H         -2.0239579595       -1.0137457297        0.0055248445
 H         -0.7029363630        1.7685740602       -0.0020550699
 H          2.3428261746        0.4990053215       -0.8809651251
 H          1.6137251120        1.8451789795        0.0039433203
 H          2.3439003817        0.4932827378        0.8790320061
 H          0.0874478202       -1.8858267057        0.8880767892
 H          0.0640582150       -1.8886161886       -0.8741015411
 H          1.5987776962       -1.7725958746       -0.0134245682
