 15

C     -0.944000    -0.410000     0.392000
C     -1.357000     0.248000     1.646000
C     -2.453000    -0.004000     2.386000
C     -2.732000     0.762000     3.650000
C     -3.478000    -1.046000     2.035000
H     -1.349000     0.099000    -0.496000
H      0.148000    -0.421000     0.257000
H     -1.293000    -1.450000     0.323000
H     -0.678000     1.025000     1.992000
H     -3.328000     1.653000     3.429000
H     -3.289000     0.138000     4.356000
H     -1.815000     1.090000     4.149000
H     -3.209000    -2.006000     2.486000
H     -4.462000    -0.750000     2.412000
H     -3.572000    -1.204000     0.957000
