  23
 
 C          3.4684006027       -0.2058025040       -0.1410862491
 C          2.2015104411        0.5402256439        0.2597448581
 C          0.9421051376       -0.1875183607       -0.2057412750
 C         -0.3273243886        0.5466518417        0.2207974976
 C         -1.6159994012       -0.0681037474       -0.3363402643
 C         -1.8722657320       -1.4617507997        0.2324075958
 C         -2.8024274657        0.8432740466       -0.0249686017
 H          4.3530181158        0.3327185906        0.1913611057
 H          3.4835521482       -1.1983875672        0.3042499280
 H          3.5198289438       -0.3161603790       -1.2222827726
 H          2.2201012591        1.5438972547       -0.1716182371
 H          2.1734900154        0.6486777834        1.3465935509
 H          0.9597902055       -0.2758438428       -1.2949299033
 H          0.9461317496       -1.1963888506        0.2101764663
 H         -0.3835855293        0.5669662251        1.3119956700
 H         -0.2603636197        1.5822077002       -0.1232785759
 H         -1.5177916980       -0.1488676763       -1.4252230380
 H         -2.8203695077       -1.8500834945       -0.1338793790
 H         -1.0887308915       -2.1554938039       -0.0600376227
 H         -1.9146769839       -1.4245863280        1.3192531153
 H         -3.7202485811        0.4328160150       -0.4402282426
 H         -2.6493511732        1.8342026364       -0.4467871949
 H         -2.9286565236        0.9446000180        1.0510558233
          23
        -23.15948415
 C          3.4636631801        0.2557335292       -0.1447498286
 C          2.2074095387       -0.4964525132        0.2770698403
 C          0.9378589287        0.1976558571       -0.2114244779
 C         -0.3200977310       -0.5514160190        0.2228255735
 C         -1.6178269373        0.0332735297       -0.3457459121
 C         -2.7847985148       -0.9068266769       -0.0470438069
 C         -1.9121431489        1.4198835313        0.2217938411
 H          4.3552195158       -0.2561159125        0.2103288737
 H          3.5186430436        0.3285263331       -1.2289111281
 H          3.4606408242        1.2635555912        0.2650551907
 H          2.1791901212       -0.5727853606        1.3666703883
 H          2.2415736980       -1.5123308978       -0.1238236478
 H          0.9203131539        1.2151994631        0.1823422729
 H          0.9608754205        0.2628430405       -1.3020749006
 H         -0.2343942840       -1.5904460253       -0.1062504560
 H         -0.3787830925       -0.5573319952        1.3140275067
 H         -1.5112140178        0.1177883626       -1.4335153085
 H         -3.7101087427       -0.5129520777       -0.4616167795
 H         -2.6086366373       -1.8902658115       -0.4773850223
 H         -2.9122525142       -1.0209417849        1.0275836848
 H         -2.8617025993        1.7896933005       -0.1592147066
 H         -1.1383696773        2.1303886400       -0.0556778578
 H         -1.9719342903        1.3789570352        1.3074914262
