 23

C     -0.519000     0.634000    -0.865000
C     -1.569000     1.550000    -0.257000
C     -2.630000     0.757000     0.508000
C     -3.683000     1.686000     1.118000
C     -4.780000     0.941000     1.902000
C     -4.149000     0.153000     3.053000
C     -5.851000     1.885000     2.449000
H      0.229000     1.222000    -1.406000
H     -0.003000     0.060000    -0.089000
H     -0.973000    -0.070000    -1.569000
H     -2.043000     2.133000    -1.054000
H     -1.077000     2.262000     0.417000
H     -3.105000     0.046000    -0.177000
H     -2.149000     0.173000     1.303000
H     -3.182000     2.389000     1.795000
H     -4.141000     2.289000     0.323000
H     -5.266000     0.222000     1.230000
H     -4.909000    -0.388000     3.627000
H     -3.426000    -0.578000     2.675000
H     -3.618000     0.822000     3.738000
H     -6.620000     1.335000     3.002000
H     -6.344000     2.427000     1.635000
H     -5.418000     2.634000     3.119000
