 17

C     -0.614000    -0.125000     0.899000
C      0.261000    -0.350000     2.141000
C      1.185000     0.859000     2.342000
C      1.108000    -1.616000     1.947000
C     -0.637000    -0.519000     3.375000
H     -1.286000    -0.973000     0.729000
H     -1.232000     0.774000     1.008000
H      0.000000    -0.000000    -0.000000
H      1.823000     0.728000     3.223000
H      0.608000     1.780000     2.483000
H      1.840000     1.006000     1.476000
H      1.744000    -1.803000     2.820000
H      0.474000    -2.498000     1.801000
H      1.760000    -1.525000     1.072000
H     -0.041000    -0.682000     4.279000
H     -1.310000    -1.376000     3.261000
H     -1.256000     0.371000     3.539000
