  17
 
 C         -0.6140000000       -0.1250000000        0.8990000000
 C          0.2610000000       -0.3500000000        2.1410000000
 C          1.1850000000        0.8590000000        2.3420000000
 C          1.1080000000       -1.6160000000        1.9470000000
 C         -0.6370000000       -0.5190000000        3.3750000000
 H         -1.2860000000       -0.9730000000        0.7290000000
 H         -1.2320000000        0.7740000000        1.0080000000
 H          0.0000000000        0.0000000000        0.0000000000
 H          1.8230000000        0.7280000000        3.2230000000
 H          0.6080000000        1.7800000000        2.4830000000
 H          1.8400000000        1.0060000000        1.4760000000
 H          1.7440000000       -1.8030000000        2.8200000000
 H          0.4740000000       -2.4980000000        1.8010000000
 H          1.7600000000       -1.5250000000        1.0720000000
 H         -0.0410000000       -0.6820000000        4.2790000000
 H         -1.3100000000       -1.3760000000        3.2610000000
 H         -1.2560000000        0.3710000000        3.5390000000
