17
 xtb: 6.7.1 (edcfbbe)
C           -2.50535271631853        0.25045499698542        0.97767596021123
C           -1.77884138307708        0.62717075551911       -0.32194913161778
C           -0.53015081892296       -0.19424642665846       -0.46088764678911
O           -0.48894612242842       -1.31849783712303       -0.93777685638319
O            0.54754923549219        0.42741792715381        0.04988748143263
C            1.80276202930234       -0.32742752248728        0.03793471845175
C            2.85557008164965        0.55254319037110        0.66078308274474
H           -2.76292270118324       -0.81255255488611        0.98584737302643
H           -1.88190462357184        0.46457129850689        1.85056854398283
H           -3.42892133983530        0.82838288778973        1.06537733537530
H           -1.52611570819267        1.69019187139637       -0.31982976638107
H           -2.41631202753660        0.41339870418072       -1.18370039097168
H            1.65168903016541       -1.25145943734124        0.60389650107434
H            2.04064054604316       -0.58080288298225       -0.99938812586793
H            2.98513402162738        1.47601687589265        0.08926340732652
H            2.59677356823048        0.80578942887077        1.69289608119744
H            3.80923859458821        0.01655142699231        0.66786660078533
