 xtb: 6.7.1 (edcfbbe)
          04112512203D

 18 17  0     0  0            999 V2000
   -2.0213    0.8698   -0.6584 C   0  0  0  0  0  0  0  0  0  0  0  0
   -1.3520    0.5082    0.6634 C   0  0  0  0  0  0  0  0  0  0  0  0
   -0.0312   -0.2631    0.5336 C   0  0  0  0  0  0  0  0  0  0  0  0
    0.3568   -0.4041    1.5509 H   0  0  0  0  0  0  0  0  0  0  0  0
   -0.2161   -1.6442   -0.0912 C   0  0  0  0  0  0  0  0  0  0  0  0
    1.0187    0.5381   -0.2485 C   0  0  0  0  0  0  0  0  0  0  0  0
    2.3184   -0.0049   -0.1424 O   0  0  0  0  0  0  0  0  0  0  0  0
   -1.3809    1.5118   -1.2568 H   0  0  0  0  0  0  0  0  0  0  0  0
   -2.2576   -0.0204   -1.2340 H   0  0  0  0  0  0  0  0  0  0  0  0
   -2.9496    1.4016   -0.4637 H   0  0  0  0  0  0  0  0  0  0  0  0
   -2.0416   -0.0987    1.2540 H   0  0  0  0  0  0  0  0  0  0  0  0
   -1.1618    1.4277    1.2226 H   0  0  0  0  0  0  0  0  0  0  0  0
   -0.6145   -1.5621   -1.0986 H   0  0  0  0  0  0  0  0  0  0  0  0
   -0.8947   -2.2472    0.5069 H   0  0  0  0  0  0  0  0  0  0  0  0
    0.7441   -2.1515   -0.1509 H   0  0  0  0  0  0  0  0  0  0  0  0
    1.0197    1.5837    0.0903 H   0  0  0  0  0  0  0  0  0  0  0  0
    0.7931    0.5197   -1.3167 H   0  0  0  0  0  0  0  0  0  0  0  0
    2.5915    0.0127    0.7853 H   0  0  0  0  0  0  0  0  0  0  0  0
  1  2  1  0  0  0  0
  2  3  1  0  0  0  0
  3  4  1  0  0  0  0
  3  5  1  0  0  0  0
  3  6  1  0  0  0  0
  6  7  1  0  0  0  0
  1  8  1  0  0  0  0
  1  9  1  0  0  0  0
  1 10  1  0  0  0  0
  2 11  1  0  0  0  0
  2 12  1  0  0  0  0
  5 13  1  0  0  0  0
  5 14  1  0  0  0  0
  5 15  1  0  0  0  0
  6 16  1  0  0  0  0
  6 17  1  0  0  0  0
  7 18  1  0  0  0  0
M  END
