15
 xtb: 6.7.1 (edcfbbe)
C            1.62942740080003       -0.96190953012054       -0.23981887740815
C            1.13446660445033        0.29364202614285        0.47728455455220
C            0.03850155256948        1.03557865584302       -0.28822340250714
C           -1.31507345796791        0.38780037173495       -0.32503130917012
C           -1.71835047394667       -0.67090321859077        0.37682766403247
H            2.41265248299465       -1.46303130381452        0.33828266865803
H            2.04990257472420       -0.70443880062573       -1.21856941086453
H            0.82305397360769       -1.68307338846467       -0.40409501226806
H            0.77753696867100        0.03911927809391        1.48300096628827
H            1.97914507162893        0.97794368530810        0.61740642302931
H            0.36788962097845        1.20817676155184       -1.32311495269961
H           -0.09230752004930        2.04247483794641        0.13511990790691
H           -2.03267923001520        0.87133582690408       -0.98933295647943
H           -2.73580235438934       -1.04140882535381        0.28783042923793
H           -1.06055656680980       -1.20264719906791        1.05891546714377
