 20

C      1.714000    -3.299000    -2.981000
C      1.657000    -3.315000    -1.460000
O      1.389000    -1.963000    -1.032000
C      1.299000    -1.761000     0.313000
O      1.423000    -2.610000     1.185000
C      1.017000    -0.315000     0.584000
O      2.924000    -3.776000    -0.949000
C      3.146000    -5.121000    -0.951000
O      2.376000    -5.987000    -1.344000
C      4.506000    -5.402000    -0.389000
H      1.915000    -4.300000    -3.375000
H      2.481000    -2.609000    -3.345000
H      0.755000    -2.970000    -3.397000
H      0.836000    -3.959000    -1.123000
H     -0.062000    -0.146000     0.612000
H      1.478000    -0.018000     1.530000
H      1.443000     0.294000    -0.218000
H      4.439000    -5.539000     0.693000
H      4.928000    -6.290000    -0.865000
H      5.165000    -4.553000    -0.592000
