  20
 
 C          1.7140000000       -3.2990000000       -2.9810000000
 C          1.6570000000       -3.3150000000       -1.4600000000
 O          1.3890000000       -1.9630000000       -1.0320000000
 C          1.2990000000       -1.7610000000        0.3130000000
 O          1.4230000000       -2.6100000000        1.1850000000
 C          1.0170000000       -0.3150000000        0.5840000000
 O          2.9240000000       -3.7760000000       -0.9490000000
 C          3.1460000000       -5.1210000000       -0.9510000000
 O          2.3760000000       -5.9870000000       -1.3440000000
 C          4.5060000000       -5.4020000000       -0.3890000000
 H          1.9150000000       -4.3000000000       -3.3750000000
 H          2.4810000000       -2.6090000000       -3.3450000000
 H          0.7550000000       -2.9700000000       -3.3970000000
 H          0.8360000000       -3.9590000000       -1.1230000000
 H         -0.0620000000       -0.1460000000        0.6120000000
 H          1.4780000000       -0.0180000000        1.5300000000
 H          1.4430000000        0.2940000000       -0.2180000000
 H          4.4390000000       -5.5390000000        0.6930000000
 H          4.9280000000       -6.2900000000       -0.8650000000
 H          5.1650000000       -4.5530000000       -0.5920000000
