  23
 
 C          2.7122972510       -1.3159047569       -0.6120268312
 C          2.4667748219       -0.1110861070        0.2937652004
 C          3.6347870663        0.8679618990        0.1886040078
 C          1.1610060904        0.6065400745       -0.0631196357
 C         -0.0783275448       -0.2320054733        0.2139008387
 O         -1.2297419050        0.5732371273       -0.0489223541
 C         -2.4160198286       -0.0342570405        0.0392779371
 O         -2.5526492365       -1.1897296680        0.3427765933
 C         -3.5355972153        0.9129999865       -0.3063508937
 H          1.9524868297       -2.0785085537       -0.4671173356
 H          3.6805898743       -1.7592325750       -0.3925494263
 H          2.7050657170       -1.0118588699       -1.6562130161
 H          2.3987172007       -0.4606963322        1.3300232582
 H          3.4907228788        1.7150951161        0.8549746925
 H          3.7246504180        1.2424529895       -0.8286390123
 H          4.5675517990        0.3773424570        0.4564856626
 H          1.1712525455        0.8849072823       -1.1184559161
 H          1.0807214356        1.5252023189        0.5213186782
 H         -0.1238136512       -1.1208313259       -0.4230902527
 H         -0.1072916216       -0.5612670187        1.2591294157
 H         -3.7275943609        0.8439659313       -1.3754801455
 H         -3.2524811136        1.9329841177       -0.0665815238
 H         -4.4364984887        0.6241455314        0.2265279962
          23
        -30.28343709
 C          1.7104800502        1.3662040078        0.6618816498
 C          1.6466468972        0.2201006796       -0.3449319650
 C          2.9890122862        0.0704500380       -1.0590464026
 C          1.2781891664       -1.1100967594        0.3234261235
 C         -0.1138023420       -1.1334474305        0.9508187529
 O         -1.1256657652       -0.9598272861       -0.0423557293
 C         -1.8127520362        0.1844288450       -0.0519654849
 O         -1.6662688394        1.0734192569        0.7456476082
 C         -2.7974348603        0.2076502417       -1.1925131003
 H          2.0807203366        2.2668442328        0.1773882085
 H          2.3822011409        1.1168572545        1.4810553809
 H          0.7272093962        1.5880573678        1.0673953527
 H          0.8818967251        0.4549452333       -1.0940222016
 H          3.2514446191        0.9922582602       -1.5725824858
 H          2.9510774641       -0.7312629984       -1.7934044725
 H          3.7745551678       -0.1574492363       -0.3415237202
 H          2.0016826316       -1.3348335253        1.1096488825
 H          1.3286576193       -1.9062020776       -0.4228158483
 H         -0.3005195112       -2.1094372435        1.4083469072
 H         -0.2228607227       -0.3509674164        1.7065017674
 H         -3.7762227784        0.4938900010       -0.8166829708
 H         -2.8422074294       -0.7648030684       -1.6716979588
 H         -2.4814040360        0.9592804853       -1.9129192081
