  23
 
 C         -0.2770000000       -3.2840000000       -0.8540000000
 C         -0.6860000000       -1.8170000000       -0.9950000000
 C          0.0170000000       -0.9790000000        0.0740000000
 C         -0.3810000000       -1.3240000000       -2.4190000000
 C         -1.1140000000       -2.0990000000       -3.5070000000
 O         -0.7560000000       -1.5580000000       -4.7720000000
 C         -1.3360000000       -2.1520000000       -5.8590000000
 O         -2.1210000000       -3.0910000000       -5.8330000000
 C         -0.8700000000       -1.4820000000       -7.1150000000
 H         -0.7700000000       -3.9010000000       -1.6120000000
 H         -0.5450000000       -3.6790000000        0.1320000000
 H          0.8050000000       -3.4010000000       -0.9830000000
 H         -1.7680000000       -1.7520000000       -0.8250000000
 H         -0.2590000000        0.0780000000       -0.0040000000
 H          1.1050000000       -1.0520000000       -0.0290000000
 H         -0.2360000000       -1.3240000000        1.0810000000
 H          0.6990000000       -1.3960000000       -2.6080000000
 H         -0.6210000000       -0.2570000000       -2.5130000000
 H         -0.8320000000       -3.1570000000       -3.4900000000
 H         -2.1980000000       -2.0150000000       -3.3970000000
 H          0.0320000000       -1.9750000000       -7.4860000000
 H         -0.6780000000       -0.4230000000       -6.9220000000
 H         -1.6490000000       -1.5600000000       -7.8790000000
