  13
 
 C         -1.8669913121        0.0346131727       -0.0001494814
 C         -1.1925839460       -1.1758884406       -0.0002508678
 C          0.1880852669       -1.2090998175       -0.0002549907
 C          0.9093488353       -0.0188722651       -0.0001170887
 C          0.2341162005        1.1955698638       -0.0000248863
 C         -1.1492192750        1.2175997497       -0.0000391823
 O          2.2688635451       -0.0908070639       -0.0003075172
 H         -2.9461065166        0.0554848039        0.0002970627
 H         -1.7463434238       -2.1031246219       -0.0001494068
 H          0.7294208147       -2.1417978882       -0.0004944565
 H          0.7953631072        2.1215393775        0.0000705583
 H         -1.6656553019        2.1663236083        0.0004543053
 H          2.6424747855        0.7986996568       -0.0002856842
          13
        -19.95414631
 C         -1.8620874243       -0.0088169233       -0.0000073976
 C         -1.1612100522       -1.2015926744       -0.0000259879
 C          0.2223585107       -1.1987235233       -0.0000019736
 C          0.9144047624        0.0061455469        0.0001032618
 C          0.2099066636        1.2061140493        0.0000483920
 C         -1.1709806295        1.1922397904       -0.0000954632
 O          2.2747913589        0.0581739381       -0.0000777812
 H         -2.9414188071       -0.0144572612        0.0002690535
 H         -1.6910030168       -2.1428181611        0.0000016844
 H          0.7699359711       -2.1327233798        0.0000376407
 H          0.7635201066        2.1315718005        0.0000508269
 H         -1.7121130666        2.1267308118        0.0002794528
 H          2.6355900277       -0.8365370893        0.0003477939
