  13
 
 C          1.8850000000       -1.0360000000       -0.1120000000
 C          2.9210000000       -1.6310000000        0.6080000000
 C          2.8780000000       -1.6520000000        2.0020000000
 C          1.8000000000       -1.0790000000        2.6760000000
 C          0.7640000000       -0.4840000000        1.9550000000
 C          0.8070000000       -0.4630000000        0.5610000000
 O          1.7590000000       -1.0980000000        4.0360000000
 H          1.9180000000       -1.0210000000       -1.1980000000
 H          3.7600000000       -2.0770000000        0.0830000000
 H          3.6890000000       -2.1150000000        2.5580000000
 H         -0.0790000000       -0.0350000000        2.4740000000
 H          0.0000000000        0.0000000000        0.0000000000
 H          0.9520000000       -0.6630000000        4.3550000000
