 xtb: 6.7.1 (edcfbbe)
          04112512523D

 21 20  0     0  0            999 V2000
    2.2425   -0.9502   -0.7318 C   0  0  0  0  0  0  0  0  0  0  0  0
    1.5878    0.3605   -0.3181 C   0  0  0  0  0  0  0  0  0  0  0  0
    0.3497    0.1839    0.5682 C   0  0  0  0  0  0  0  0  0  0  0  0
    0.6521   -0.3908    1.4614 H   0  0  0  0  0  0  0  0  0  0  0  0
   -0.8066   -0.5817   -0.1112 C   0  0  0  0  0  0  0  0  0  0  0  0
   -1.9609   -0.7962    0.8709 C   0  0  0  0  0  0  0  0  0  0  0  0
   -1.3080    0.1402   -1.3603 C   0  0  0  0  0  0  0  0  0  0  0  0
   -0.0343    1.4899    0.9685 O   0  0  0  0  0  0  0  0  0  0  0  0
    1.6052   -1.5123   -1.4089 H   0  0  0  0  0  0  0  0  0  0  0  0
    2.4493   -1.5653    0.1411 H   0  0  0  0  0  0  0  0  0  0  0  0
    3.1813   -0.7473   -1.2400 H   0  0  0  0  0  0  0  0  0  0  0  0
    2.2986    0.9602    0.2548 H   0  0  0  0  0  0  0  0  0  0  0  0
    1.3108    0.9438   -1.1961 H   0  0  0  0  0  0  0  0  0  0  0  0
   -0.4172   -1.5643   -0.3918 H   0  0  0  0  0  0  0  0  0  0  0  0
   -2.6908   -1.4778    0.4412 H   0  0  0  0  0  0  0  0  0  0  0  0
   -1.6012   -1.2264    1.8035 H   0  0  0  0  0  0  0  0  0  0  0  0
   -2.4680    0.1423    1.0844 H   0  0  0  0  0  0  0  0  0  0  0  0
   -2.2286   -0.3175   -1.7134 H   0  0  0  0  0  0  0  0  0  0  0  0
   -0.5754    0.0933   -2.1611 H   0  0  0  0  0  0  0  0  0  0  0  0
   -1.5026    1.1858   -1.1311 H   0  0  0  0  0  0  0  0  0  0  0  0
   -0.7510    1.4214    1.6128 H   0  0  0  0  0  0  0  0  0  0  0  0
  1  2  1  0  0  0  0
  2  3  1  0  0  0  0
  3  4  1  0  0  0  0
  3  5  1  0  0  0  0
  5  6  1  0  0  0  0
  5  7  1  0  0  0  0
  3  8  1  0  0  0  0
  1  9  1  0  0  0  0
  1 10  1  0  0  0  0
  1 11  1  0  0  0  0
  2 12  1  0  0  0  0
  2 13  1  0  0  0  0
  5 14  1  0  0  0  0
  6 15  1  0  0  0  0
  6 16  1  0  0  0  0
  6 17  1  0  0  0  0
  7 18  1  0  0  0  0
  7 19  1  0  0  0  0
  7 20  1  0  0  0  0
  8 21  1  0  0  0  0
M  END
