 xtb: 6.7.1 (edcfbbe)
          04112512523D

 21 20  0     0  0            999 V2000
    2.0994   -0.7014   -0.7595 C   0  0  0  0  0  0  0  0  0  0  0  0
    1.4655   -0.4968    0.6124 C   0  0  0  0  0  0  0  0  0  0  0  0
    0.1997    0.3745    0.5704 C   0  0  0  0  0  0  0  0  0  0  0  0
   -0.2002    0.4425    1.5975 H   0  0  0  0  0  0  0  0  0  0  0  0
   -0.9187   -0.1715   -0.3347 C   0  0  0  0  0  0  0  0  0  0  0  0
   -1.2941   -1.6081    0.0180 C   0  0  0  0  0  0  0  0  0  0  0  0
   -2.1486    0.7299   -0.2217 C   0  0  0  0  0  0  0  0  0  0  0  0
    0.5075    1.6808    0.1067 O   0  0  0  0  0  0  0  0  0  0  0  0
    2.1981    0.2542   -1.2695 H   0  0  0  0  0  0  0  0  0  0  0  0
    1.4928   -1.3580   -1.3770 H   0  0  0  0  0  0  0  0  0  0  0  0
    3.0864   -1.1449   -0.6549 H   0  0  0  0  0  0  0  0  0  0  0  0
    1.2234   -1.4570    1.0667 H   0  0  0  0  0  0  0  0  0  0  0  0
    2.1879   -0.0000    1.2661 H   0  0  0  0  0  0  0  0  0  0  0  0
   -0.5581   -0.1267   -1.3662 H   0  0  0  0  0  0  0  0  0  0  0  0
   -0.4858   -2.2995   -0.2001 H   0  0  0  0  0  0  0  0  0  0  0  0
   -1.5440   -1.6844    1.0741 H   0  0  0  0  0  0  0  0  0  0  0  0
   -2.1628   -1.9096   -0.5620 H   0  0  0  0  0  0  0  0  0  0  0  0
   -2.9135    0.4155   -0.9270 H   0  0  0  0  0  0  0  0  0  0  0  0
   -1.8765    1.7597   -0.4365 H   0  0  0  0  0  0  0  0  0  0  0  0
   -2.5614    0.6812    0.7841 H   0  0  0  0  0  0  0  0  0  0  0  0
    1.1746    2.0704    0.6869 H   0  0  0  0  0  0  0  0  0  0  0  0
  1  2  1  0  0  0  0
  2  3  1  0  0  0  0
  3  4  1  0  0  0  0
  3  5  1  0  0  0  0
  5  6  1  0  0  0  0
  5  7  1  0  0  0  0
  3  8  1  0  0  0  0
  1  9  1  0  0  0  0
  1 10  1  0  0  0  0
  1 11  1  0  0  0  0
  2 12  1  0  0  0  0
  2 13  1  0  0  0  0
  5 14  1  0  0  0  0
  6 15  1  0  0  0  0
  6 16  1  0  0  0  0
  6 17  1  0  0  0  0
  7 18  1  0  0  0  0
  7 19  1  0  0  0  0
  7 20  1  0  0  0  0
  8 21  1  0  0  0  0
M  END
