 xtb: 6.7.1 (edcfbbe)
          04112512313D

 18 17  0     0  0            999 V2000
   -1.6223    1.0582   -0.5332 C   0  0  0  0  0  0  0  0  0  0  0  0
   -1.0844    0.4890    0.7785 C   0  0  0  0  0  0  0  0  0  0  0  0
   -0.0500   -0.6429    0.6354 C   0  0  0  0  0  0  0  0  0  0  0  0
   -0.0394   -1.1931    1.5836 H   0  0  0  0  0  0  0  0  0  0  0  0
   -0.3996   -1.6222   -0.4827 C   0  0  0  0  0  0  0  0  0  0  0  0
    1.3872   -0.1179    0.4623 C   0  0  0  0  0  0  0  0  0  0  0  0
    1.6101    0.6586   -0.6949 O   0  0  0  0  0  0  0  0  0  0  0  0
   -2.2173    1.9459   -0.3293 H   0  0  0  0  0  0  0  0  0  0  0  0
   -0.8231    1.3283   -1.2167 H   0  0  0  0  0  0  0  0  0  0  0  0
   -2.2598    0.3335   -1.0322 H   0  0  0  0  0  0  0  0  0  0  0  0
   -1.9320    0.1062    1.3518 H   0  0  0  0  0  0  0  0  0  0  0  0
   -0.6366    1.2925    1.3695 H   0  0  0  0  0  0  0  0  0  0  0  0
   -0.2577   -1.1552   -1.4535 H   0  0  0  0  0  0  0  0  0  0  0  0
   -1.4309   -1.9530   -0.3926 H   0  0  0  0  0  0  0  0  0  0  0  0
    0.2485   -2.4939   -0.4288 H   0  0  0  0  0  0  0  0  0  0  0  0
    2.0660   -0.9705    0.3691 H   0  0  0  0  0  0  0  0  0  0  0  0
    1.6755    0.4503    1.3570 H   0  0  0  0  0  0  0  0  0  0  0  0
    1.1953    1.5226   -0.5715 H   0  0  0  0  0  0  0  0  0  0  0  0
  1  2  1  0  0  0  0
  2  3  1  0  0  0  0
  3  4  1  0  0  0  0
  3  5  1  0  0  0  0
  3  6  1  0  0  0  0
  6  7  1  0  0  0  0
  1  8  1  0  0  0  0
  1  9  1  0  0  0  0
  1 10  1  0  0  0  0
  2 11  1  0  0  0  0
  2 12  1  0  0  0  0
  5 13  1  0  0  0  0
  5 14  1  0  0  0  0
  5 15  1  0  0  0  0
  6 16  1  0  0  0  0
  6 17  1  0  0  0  0
  7 18  1  0  0  0  0
M  END
