 xtb: 6.7.1 (edcfbbe)
          04112511533D

 26 27  0     0  0            999 V2000
    0.5178    1.9257    0.3591 C   0  0  0  0  0  0  0  0  0  0  0  0
    1.8688    2.1784    0.4361 C   0  0  0  0  0  0  0  0  0  0  0  0
    2.8101    1.1733    0.2015 C   0  0  0  0  0  0  0  0  0  0  0  0
    2.3441   -0.1152   -0.1178 C   0  0  0  0  0  0  0  0  0  0  0  0
    0.9721   -0.3541   -0.1860 C   0  0  0  0  0  0  0  0  0  0  0  0
    0.0458    0.6479    0.0486 C   0  0  0  0  0  0  0  0  0  0  0  0
   -1.3999    0.3897   -0.0370 C   0  0  0  0  0  0  0  0  0  0  0  0
   -2.2492    1.2882   -0.6831 C   0  0  0  0  0  0  0  0  0  0  0  0
   -3.6093    1.0612   -0.7801 C   0  0  0  0  0  0  0  0  0  0  0  0
   -4.1300   -0.0865   -0.2137 C   0  0  0  0  0  0  0  0  0  0  0  0
   -3.3382   -1.0062    0.4464 C   0  0  0  0  0  0  0  0  0  0  0  0
   -1.9833   -0.7466    0.5186 C   0  0  0  0  0  0  0  0  0  0  0  0
   -1.2150   -1.6400    1.1947 F   0  0  0  0  0  0  0  0  0  0  0  0
   -5.4646   -0.3243   -0.3016 F   0  0  0  0  0  0  0  0  0  0  0  0
    3.2370   -1.2544   -0.3974 C   0  0  0  0  0  0  0  0  0  0  0  0
    2.8306   -2.3423   -0.7746 O   0  0  0  0  0  0  0  0  0  0  0  0
    4.5255   -1.0215   -0.2089 O   0  0  0  0  0  0  0  0  0  0  0  0
    4.1252    1.4187    0.2673 O   0  0  0  0  0  0  0  0  0  0  0  0
   -0.1854    2.7181    0.5614 H   0  0  0  0  0  0  0  0  0  0  0  0
    2.2117    3.1714    0.6851 H   0  0  0  0  0  0  0  0  0  0  0  0
    0.6608   -1.3552   -0.4441 H   0  0  0  0  0  0  0  0  0  0  0  0
   -1.8255    2.1709   -1.1331 H   0  0  0  0  0  0  0  0  0  0  0  0
   -4.2606    1.7540   -1.2861 H   0  0  0  0  0  0  0  0  0  0  0  0
   -3.7563   -1.8927    0.8928 H   0  0  0  0  0  0  0  0  0  0  0  0
    5.0721   -1.8053   -0.4092 H   0  0  0  0  0  0  0  0  0  0  0  0
    4.3004    2.3491    0.4879 H   0  0  0  0  0  0  0  0  0  0  0  0
  1  2  4  0  0  0  0
  2  3  4  0  0  0  0
  3  4  4  0  0  0  0
  4  5  4  0  0  0  0
  1  6  4  0  0  0  0
  5  6  4  0  0  0  0
  6  7  1  0  0  0  0
  7  8  4  0  0  0  0
  8  9  4  0  0  0  0
  9 10  4  0  0  0  0
 10 11  4  0  0  0  0
  7 12  4  0  0  0  0
 11 12  4  0  0  0  0
 12 13  1  0  0  0  0
 10 14  1  0  0  0  0
  4 15  1  0  0  0  0
 15 16  2  0  0  0  0
 15 17  1  0  0  0  0
  3 18  1  0  0  0  0
  1 19  1  0  0  0  0
  2 20  1  0  0  0  0
  5 21  1  0  0  0  0
  8 22  1  0  0  0  0
  9 23  1  0  0  0  0
 11 24  1  0  0  0  0
 17 25  1  0  0  0  0
 18 26  1  0  0  0  0
M  END
