 xtb: 6.7.1 (edcfbbe)
          04112512343D

 23 22  0     0  0            999 V2000
    1.9862    1.0927    1.0012 C   0  0  0  0  0  0  0  0  0  0  0  0
    1.6457   -0.2323    0.3293 C   0  0  0  0  0  0  0  0  0  0  0  0
    0.3721   -0.2203   -0.5316 C   0  0  0  0  0  0  0  0  0  0  0  0
    0.4726    0.5777   -1.2761 H   0  0  0  0  0  0  0  0  0  0  0  0
    0.3128   -1.5472   -1.2923 C   0  0  0  0  0  0  0  0  0  0  0  0
   -0.8895    0.0775    0.3206 C   0  0  0  0  0  0  0  0  0  0  0  0
   -1.2773    1.5541    0.2088 C   0  0  0  0  0  0  0  0  0  0  0  0
   -2.1162   -0.7615   -0.0423 C   0  0  0  0  0  0  0  0  0  0  0  0
    1.2419    1.3621    1.7455 H   0  0  0  0  0  0  0  0  0  0  0  0
    2.9491    1.0158    1.5019 H   0  0  0  0  0  0  0  0  0  0  0  0
    2.0495    1.8899    0.2636 H   0  0  0  0  0  0  0  0  0  0  0  0
    1.5454   -1.0072    1.0937 H   0  0  0  0  0  0  0  0  0  0  0  0
    2.4850   -0.5147   -0.3114 H   0  0  0  0  0  0  0  0  0  0  0  0
    1.2206   -1.6697   -1.8798 H   0  0  0  0  0  0  0  0  0  0  0  0
    0.2430   -2.3857   -0.6034 H   0  0  0  0  0  0  0  0  0  0  0  0
   -0.5318   -1.5801   -1.9732 H   0  0  0  0  0  0  0  0  0  0  0  0
   -0.6486   -0.1398    1.3673 H   0  0  0  0  0  0  0  0  0  0  0  0
   -1.6019    1.7772   -0.8058 H   0  0  0  0  0  0  0  0  0  0  0  0
   -0.4446    2.2066    0.4513 H   0  0  0  0  0  0  0  0  0  0  0  0
   -2.0983    1.7820    0.8857 H   0  0  0  0  0  0  0  0  0  0  0  0
   -1.9304   -1.8232    0.0877 H   0  0  0  0  0  0  0  0  0  0  0  0
   -2.4210   -0.5796   -1.0701 H   0  0  0  0  0  0  0  0  0  0  0  0
   -2.9443   -0.4839    0.6071 H   0  0  0  0  0  0  0  0  0  0  0  0
  1  2  1  0  0  0  0
  2  3  1  0  0  0  0
  3  4  1  0  0  0  0
  3  5  1  0  0  0  0
  3  6  1  0  0  0  0
  6  7  1  0  0  0  0
  6  8  1  0  0  0  0
  1  9  1  0  0  0  0
  1 10  1  0  0  0  0
  1 11  1  0  0  0  0
  2 12  1  0  0  0  0
  2 13  1  0  0  0  0
  5 14  1  0  0  0  0
  5 15  1  0  0  0  0
  5 16  1  0  0  0  0
  6 17  1  0  0  0  0
  7 18  1  0  0  0  0
  7 19  1  0  0  0  0
  7 20  1  0  0  0  0
  8 21  1  0  0  0  0
  8 22  1  0  0  0  0
  8 23  1  0  0  0  0
M  END
