14
 xtb: 6.7.1 (edcfbbe)
C           -1.24761974736882        0.24447891433353       -0.26195212208464
C            0.11684657058172        0.64397590525245        0.29027193962281
C            1.25597559007733       -0.18806163013605       -0.30004248338226
O            1.13206760288946       -1.58740513807823        0.01546041985229
O            0.30326450387373        2.02125946663266       -0.07226015970303
O           -1.65697759698694       -1.04939751830757        0.19752346759638
H           -1.21915730784934        0.27960130214772       -1.36215903747574
H           -2.00061056891156        0.95879240827837        0.08553520977021
H            0.10711269887542        0.52909472539503        1.38586943936294
H            2.22002135467748        0.20346045594058        0.05442086599661
H            1.23070725035190       -0.11500940845979       -1.39262218487514
H            1.26728348840078       -1.68566696057878        0.96818857354906
H            1.14030861017072        2.31516443170849        0.31092868135212
H           -0.90196640549647       -1.64118451430703        0.04445083334708
