21
 xtb: 6.7.1 (edcfbbe)
C            2.56603635591464       -0.16062819917896        0.67222705376982
C            1.12576916078299       -0.60448168340386        0.43086879603980
C            0.21921004397533        0.53234515564806       -0.03039755808243
H            0.34950296033352        1.38728562271249        0.64664016862131
C           -1.28111576704713        0.18994771845827       -0.06428140765668
C           -1.59860016555852       -1.03453755021155       -0.92324922979428
C           -1.84920957731991        0.02569328325321        1.34647618644863
O            0.65370037400113        1.03387118660111       -1.32063487068657
H            3.01877405937093        0.24366203647518       -0.23841769549609
H            3.18388555331304       -1.00044354851278        1.00581647072364
H            2.61055865043333        0.61592625658668        1.44398413543341
H            1.10076772192883       -1.40320553817317       -0.32229998135025
H            0.71571776422857       -1.03150693096586        1.35363737742447
H           -1.76717039036480        1.06350269810195       -0.52049522600755
H           -1.17755540934594       -0.95275054791088       -1.93185805828303
H           -1.21198063067297       -1.95207379562960       -0.46622065315195
H           -2.68233496880577       -1.15042196669599       -1.02965281035684
H           -2.94005403516232       -0.06260009203934        1.30997770082298
H           -1.60203454053790        0.88544695747028        1.97934877862154
H           -1.46235240226636       -0.87662885890977        1.83232378373160
H            0.69471291946182        0.27784619121319       -1.92220828341478
