  5
 
 C          0.0001612044        0.0002007358       -0.4945267806
 Cl        -0.9824243169       -1.3571653012        0.0738204459
 Cl        -0.6841111659        1.5294639267        0.0741533494
 Cl         1.6665879726       -0.1721255952        0.0740214799
 H          0.0000893708        0.0002517566       -1.5858135252
           5
        -16.28305497
 C          0.0001265247        0.0000582106        0.4973103567
 Cl        -1.6744234194       -0.0600133077       -0.0712046672
 Cl         0.8891589143       -1.4200371179       -0.0712161088
 Cl         0.7852211342        1.4800301737       -0.0712238157
 H          0.0000177985        0.0000186741        1.5885970988
