 xtb: 6.7.1 (edcfbbe)
          04112511493D

 21 20  0     0  0            999 V2000
    2.1361   -0.6145   -0.8750 C   0  0  0  0  0  0  0  0  0  0  0  0
    1.2156   -0.1686    0.2610 C   0  0  0  0  0  0  0  0  0  0  0  0
    0.9096   -1.0547    0.8397 H   0  0  0  0  0  0  0  0  0  0  0  0
   -0.0338    0.5602   -0.2631 C   0  0  0  0  0  0  0  0  0  0  0  0
   -1.3588   -0.0464    0.2091 C   0  0  0  0  0  0  0  0  0  0  0  0
   -2.5081    0.9139   -0.0919 C   0  0  0  0  0  0  0  0  0  0  0  0
   -1.6177   -1.3938   -0.4622 C   0  0  0  0  0  0  0  0  0  0  0  0
    1.8818    0.7298    1.1395 O   0  0  0  0  0  0  0  0  0  0  0  0
    1.5974   -1.2763   -1.5466 H   0  0  0  0  0  0  0  0  0  0  0  0
    2.4805    0.2544   -1.4307 H   0  0  0  0  0  0  0  0  0  0  0  0
    3.0016   -1.1461   -0.4846 H   0  0  0  0  0  0  0  0  0  0  0  0
    0.0357    1.5903    0.0921 H   0  0  0  0  0  0  0  0  0  0  0  0
   -0.0207    0.5824   -1.3535 H   0  0  0  0  0  0  0  0  0  0  0  0
   -1.3044   -0.1936    1.2936 H   0  0  0  0  0  0  0  0  0  0  0  0
   -2.3590    1.8627    0.4177 H   0  0  0  0  0  0  0  0  0  0  0  0
   -3.4537    0.4909    0.2384 H   0  0  0  0  0  0  0  0  0  0  0  0
   -2.5707    1.1036   -1.1611 H   0  0  0  0  0  0  0  0  0  0  0  0
   -0.8109   -2.0940   -0.2614 H   0  0  0  0  0  0  0  0  0  0  0  0
   -2.5449   -1.8272   -0.0948 H   0  0  0  0  0  0  0  0  0  0  0  0
   -1.7017   -1.2655   -1.5392 H   0  0  0  0  0  0  0  0  0  0  0  0
    2.6918    0.3166    1.4668 H   0  0  0  0  0  0  0  0  0  0  0  0
  1  2  1  0  0  0  0
  2  3  1  0  0  0  0
  2  4  1  0  0  0  0
  4  5  1  0  0  0  0
  5  6  1  0  0  0  0
  5  7  1  0  0  0  0
  2  8  1  0  0  0  0
  1  9  1  0  0  0  0
  1 10  1  0  0  0  0
  1 11  1  0  0  0  0
  4 12  1  0  0  0  0
  4 13  1  0  0  0  0
  5 14  1  0  0  0  0
  6 15  1  0  0  0  0
  6 16  1  0  0  0  0
  6 17  1  0  0  0  0
  7 18  1  0  0  0  0
  7 19  1  0  0  0  0
  7 20  1  0  0  0  0
  8 21  1  0  0  0  0
M  END
