23
 xtb: 6.7.1 (edcfbbe)
C            1.95707556843496        1.10806921131017        1.02092790514346
C            1.66375565193642       -0.19354428963200        0.27931875389081
C            0.36947512645066       -0.24204810893547       -0.55392832647658
H            0.43686499926832        0.53585547667104       -1.33033520269585
C            0.32115010048688       -1.59713119862566       -1.26743744625196
C           -0.88959145470864        0.06934245794918        0.30930390042332
C           -1.24609956332456        1.55955589471929        0.24572039785043
C           -2.13577091019128       -0.73826584397551       -0.06658811161801
H            1.20700355409855        1.32203146334574        1.78860746098112
H            2.92854753695835        1.04660925431783        1.52335964593935
H            1.99223249074667        1.96092786415703        0.33382077420852
H            1.62689626515305       -1.01899446919746        1.00486091137008
H            2.50575869850685       -0.41264635784564       -0.39028209583802
H            1.23263478989051       -1.74048290671072       -1.85815924896962
H            0.26127670266734       -2.42156829414107       -0.54709681867238
H           -0.53064904309619       -1.67945232070047       -1.94782795375373
H           -0.64159528868110       -0.18249346520990        1.35134004832046
H           -1.60736225816282        1.81204804607605       -0.75904812872121
H           -0.39188234087135        2.20590221846731        0.46037530426501
H           -2.04331667789058        1.80414149511254        0.95685677313151
H           -1.98561990629626       -1.81607998102539        0.04148248171763
H           -2.44017196814339       -0.53852377676653       -1.10071036091271
H           -2.97085479711911       -0.45295985137440        0.58302414447643
