  18
 
 C         -3.1582146480        0.2107081819        0.0048016930
 O         -1.9355400420        0.9035273044        0.0076592205
 C         -0.7779908872        0.1766740006       -0.0043560100
 C         -0.7103613984       -1.2118190691        0.0078340087
 C          0.5316567913       -1.8273548026       -0.0014404706
 C          1.6967961906       -1.0921135651       -0.0227879250
 C          1.6377882603        0.3036900145       -0.0372584880
 C          0.3945218543        0.9244950510       -0.0237473153
 N          2.7925378425        1.0539356171       -0.1350176426
 H         -3.9326468644        0.9767568452        0.0031817133
 H         -3.2710824408       -0.4135977315        0.8976502206
 H         -3.2654159811       -0.4130313959       -0.8890348641
 H         -1.6010809204       -1.8184006223        0.0254947352
 H          0.5825350062       -2.9064695280        0.0107277492
 H          2.6576459011       -1.5852890424       -0.0312651853
 H          0.3194482661        2.0010633047       -0.0326756051
 H          3.6438731700        0.6001474520        0.1542061226
 H          2.7196691274        2.0206408328        0.1366978223
          18
        -26.55008937
 C         -3.1731437346        0.1767461729        0.0091027722
 O         -1.9622199767        0.8894788299       -0.0063400211
 C         -0.7923994235        0.1829822287       -0.0028077649
 C         -0.7006692082       -1.2040509900        0.0022981981
 C          0.5521830631       -1.7976010359        0.0005434734
 C          1.7041807934       -1.0418026099       -0.0068367913
 C          1.6207780452        0.3528593055       -0.0105148287
 C          0.3670110880        0.9515180941       -0.0118616979
 N          2.7641537734        1.1245189811        0.0568530031
 H         -3.2650588185       -0.4430947645        0.9072097663
 H         -3.2813656023       -0.4546715394       -0.8792988787
 H         -3.9596136738        0.9302889269        0.0112239217
 H         -1.5808244275       -1.8261408750        0.0062937719
 H          0.6223253310       -2.8756908223        0.0022602385
 H          2.6735402551       -1.5181415230       -0.0074307259
 H          0.2721722221        2.0265462422       -0.0159360389
 H          3.6164140439        0.6825227167       -0.2472456131
 H          2.6670944781        2.0858141720       -0.2272658591
