  18
 
 C          3.0580000000       -1.6210000000       -2.0880000000
 O          1.9260000000       -1.0160000000       -1.4730000000
 C          1.8850000000       -1.0360000000       -0.1120000000
 C          2.9210000000       -1.6310000000        0.6080000000
 C          2.8780000000       -1.6520000000        2.0020000000
 C          1.8000000000       -1.0790000000        2.6760000000
 C          0.7640000000       -0.4840000000        1.9550000000
 C          0.8070000000       -0.4630000000        0.5610000000
 N         -0.3270000000        0.0960000000        2.6360000000
 H          2.9700000000       -1.5380000000       -3.1740000000
 H          3.1150000000       -2.6720000000       -1.7950000000
 H          3.9610000000       -1.1030000000       -1.7570000000
 H          3.7640000000       -2.0790000000        0.0890000000
 H          3.6850000000       -2.1150000000        2.5630000000
 H          1.7770000000       -1.1000000000        3.7620000000
 H          0.0020000000        0.0000000000       -0.0060000000
 H         -0.3690000000        0.0330000000        3.6330000000
 H         -1.0850000000        0.4770000000        2.1070000000
