 30

C      1.644000     1.019000    -8.587000
C      1.097000     1.215000    -7.182000
C      1.119000    -0.090000    -6.386000
C      0.569000     0.111000    -4.973000
C      0.591000    -1.193000    -4.177000
C      0.045000    -0.998000    -2.773000
C     -1.428000    -0.601000    -2.751000
C     -1.873000    -0.906000    -1.324000
C     -0.915000    -1.977000    -0.800000
C      0.049000    -2.278000    -1.943000
H      1.624000     1.958000    -9.150000
H      1.040000     0.285000    -9.130000
H      2.676000     0.656000    -8.559000
H      0.071000     1.595000    -7.245000
H      1.694000     1.976000    -6.667000
H      2.147000    -0.468000    -6.329000
H      0.524000    -0.849000    -6.907000
H     -0.459000     0.490000    -5.029000
H      1.164000     0.870000    -4.451000
H     -0.006000    -1.954000    -4.692000
H      1.617000    -1.574000    -4.114000
H      0.637000    -0.229000    -2.260000
H     -1.580000     0.452000    -3.011000
H     -2.008000    -1.208000    -3.456000
H     -1.803000    -0.007000    -0.701000
H     -2.914000    -1.243000    -1.296000
H     -0.368000    -1.591000     0.068000
H     -1.447000    -2.879000    -0.478000
H      1.048000    -2.536000    -1.579000
H     -0.325000    -3.127000    -2.529000
