  30
 
 C          1.6440000000        1.0190000000       -8.5870000000
 C          1.0970000000        1.2150000000       -7.1820000000
 C          1.1190000000       -0.0900000000       -6.3860000000
 C          0.5690000000        0.1110000000       -4.9730000000
 C          0.5910000000       -1.1930000000       -4.1770000000
 C          0.0450000000       -0.9980000000       -2.7730000000
 C         -1.4280000000       -0.6010000000       -2.7510000000
 C         -1.8730000000       -0.9060000000       -1.3240000000
 C         -0.9150000000       -1.9770000000       -0.8000000000
 C          0.0490000000       -2.2780000000       -1.9430000000
 H          1.6240000000        1.9580000000       -9.1500000000
 H          1.0400000000        0.2850000000       -9.1300000000
 H          2.6760000000        0.6560000000       -8.5590000000
 H          0.0710000000        1.5950000000       -7.2450000000
 H          1.6940000000        1.9760000000       -6.6670000000
 H          2.1470000000       -0.4680000000       -6.3290000000
 H          0.5240000000       -0.8490000000       -6.9070000000
 H         -0.4590000000        0.4900000000       -5.0290000000
 H          1.1640000000        0.8700000000       -4.4510000000
 H         -0.0060000000       -1.9540000000       -4.6920000000
 H          1.6170000000       -1.5740000000       -4.1140000000
 H          0.6370000000       -0.2290000000       -2.2600000000
 H         -1.5800000000        0.4520000000       -3.0110000000
 H         -2.0080000000       -1.2080000000       -3.4560000000
 H         -1.8030000000       -0.0070000000       -0.7010000000
 H         -2.9140000000       -1.2430000000       -1.2960000000
 H         -0.3680000000       -1.5910000000        0.0680000000
 H         -1.4470000000       -2.8790000000       -0.4780000000
 H          1.0480000000       -2.5360000000       -1.5790000000
 H         -0.3250000000       -3.1270000000       -2.5290000000
