  12
 
 C          1.5283133671        1.2027513783        0.0000052528
 C          0.1460123953        1.2387692668       -0.0003392440
 C         -0.5492839312        0.0280029614       -0.0003433209
 C          0.1887938531       -1.1607835399       -0.0001468208
 N          1.5047148774       -1.1846962400        0.0001413939
 C          2.1587023310       -0.0349542972        0.0002261507
 C         -1.9618148159       -0.0027216423       -0.0003481314
 N         -3.1074779973       -0.0309673862        0.0004998940
 H          2.1052364774        2.1140367151        0.0001747694
 H         -0.3931159291        2.1751815968       -0.0005668592
 H         -0.3081799542       -2.1218186127       -0.0002459293
 H          3.2374936623       -0.1138641927        0.0004951731
          12
        -20.66826325
 C          1.5306429159        1.1930584171       -0.0000245261
 C          0.1484189094        1.2360844599       -0.0001457432
 C         -0.5528467744        0.0287774278       -0.0001825201
 C          0.1795240022       -1.1639125652       -0.0002250320
 N          1.4951501252       -1.1942295427        0.0000271679
 C          2.1549887420       -0.0477522781        0.0002981820
 C         -1.9653287717        0.0036677173        0.0002776831
 N         -3.1110817233       -0.0231314715        0.0000241176
 H          2.1121006275        2.1014042042       -0.0001649335
 H         -0.3863282200        2.1749780475       -0.0000983970
 H         -0.3231649612       -2.1220303812       -0.0002801176
 H          3.2333995428       -0.1319456626       -0.0001459480
