 12

C      1.652000    -0.623000     2.900000
C      1.388000    -0.068000     1.652000
C      0.227000    -0.420000     0.973000
C     -0.632000    -1.322000     1.580000
N     -0.409000    -1.882000     2.791000
C      0.730000    -1.516000     3.421000
C     -0.072000     0.133000    -0.308000
N     -0.316000     0.583000    -1.353000
H      2.551000    -0.364000     3.447000
H      2.096000     0.635000     1.222000
H     -1.555000    -1.638000     1.103000
H      0.889000    -1.976000     4.390000
