 xtb: 6.7.1 (edcfbbe)
          04112510353D

 18 17  0     0  0            999 V2000
   -2.7474   -0.0061    0.0160 C   0  0  0  0  0  0  0  0  0  0  0  0
   -1.3153   -0.0704   -0.5003 C   0  0  0  0  0  0  0  0  0  0  0  0
   -0.2989    0.1403    0.6287 C   0  0  0  0  0  0  0  0  0  0  0  0
    1.1142    0.1016    0.1142 C   0  0  0  0  0  0  0  0  0  0  0  0
    1.7805    1.2075   -0.1778 C   0  0  0  0  0  0  0  0  0  0  0  0
    1.7075   -1.2626   -0.0620 C   0  0  0  0  0  0  0  0  0  0  0  0
   -2.9460    0.9624    0.4697 H   0  0  0  0  0  0  0  0  0  0  0  0
   -2.9173   -0.7762    0.7651 H   0  0  0  0  0  0  0  0  0  0  0  0
   -3.4528   -0.1557   -0.7977 H   0  0  0  0  0  0  0  0  0  0  0  0
   -1.1441   -1.0407   -0.9703 H   0  0  0  0  0  0  0  0  0  0  0  0
   -1.1636    0.6983   -1.2613 H   0  0  0  0  0  0  0  0  0  0  0  0
   -0.4935    1.1069    1.0973 H   0  0  0  0  0  0  0  0  0  0  0  0
   -0.4387   -0.6388    1.3811 H   0  0  0  0  0  0  0  0  0  0  0  0
    2.7855    1.1837   -0.5645 H   0  0  0  0  0  0  0  0  0  0  0  0
    1.3482    2.1846   -0.0405 H   0  0  0  0  0  0  0  0  0  0  0  0
    1.0732   -1.8723   -0.7029 H   0  0  0  0  0  0  0  0  0  0  0  0
    2.6988   -1.2043   -0.5029 H   0  0  0  0  0  0  0  0  0  0  0  0
    1.7820   -1.7628    0.9029 H   0  0  0  0  0  0  0  0  0  0  0  0
  1  2  1  0  0  0  0
  2  3  1  0  0  0  0
  3  4  1  0  0  0  0
  4  5  2  0  0  0  0
  4  6  1  0  0  0  0
  1  7  1  0  0  0  0
  1  8  1  0  0  0  0
  1  9  1  0  0  0  0
  2 10  1  0  0  0  0
  2 11  1  0  0  0  0
  3 12  1  0  0  0  0
  3 13  1  0  0  0  0
  5 14  1  0  0  0  0
  5 15  1  0  0  0  0
  6 16  1  0  0  0  0
  6 17  1  0  0  0  0
  6 18  1  0  0  0  0
M  END
