 xtb: 6.7.1 (edcfbbe)
          04112514293D

 35 35  0     0  0            999 V2000
   -0.2870   -2.6925    0.0042 C   0  0  0  0  0  0  0  0  0  0  0  0
    0.5124   -1.4304   -0.0574 C   0  0  0  0  0  0  0  0  0  0  0  0
    1.8792   -1.3727    0.2579 C   0  0  0  0  0  0  0  0  0  0  0  0
    2.5721   -0.2515    0.1789 N   0  0  0  0  0  0  0  0  0  0  0  0
    1.9414    0.8676   -0.2113 C   0  0  0  0  0  0  0  0  0  0  0  0
    0.6247    0.9246   -0.4921 N   0  0  0  0  0  0  0  0  0  0  0  0
   -0.0440   -0.2054   -0.4027 C   0  0  0  0  0  0  0  0  0  0  0  0
   -1.3922   -0.1006   -0.7322 O   0  0  0  0  0  0  0  0  0  0  0  0
   -2.2754   -0.1687    0.3061 C   0  0  0  0  0  0  0  0  0  0  0  0
   -1.9142   -0.3258    1.4634 O   0  0  0  0  0  0  0  0  0  0  0  0
   -3.5437   -0.0491   -0.0888 N   0  0  0  0  0  0  0  0  0  0  0  0
   -4.6124   -0.1111    0.8858 C   0  0  0  0  0  0  0  0  0  0  0  0
   -3.9542    0.1445   -1.4628 C   0  0  0  0  0  0  0  0  0  0  0  0
    2.6580    1.9902   -0.3219 N   0  0  0  0  0  0  0  0  0  0  0  0
    4.0686    2.0252   -0.0199 C   0  0  0  0  0  0  0  0  0  0  0  0
    2.0648    3.2442   -0.7162 C   0  0  0  0  0  0  0  0  0  0  0  0
    2.6255   -2.5878    0.7019 C   0  0  0  0  0  0  0  0  0  0  0  0
   -0.6054   -2.8827    1.0301 H   0  0  0  0  0  0  0  0  0  0  0  0
   -1.1773   -2.6045   -0.6155 H   0  0  0  0  0  0  0  0  0  0  0  0
    0.3026   -3.5374   -0.3409 H   0  0  0  0  0  0  0  0  0  0  0  0
   -5.1726    0.8240    0.8797 H   0  0  0  0  0  0  0  0  0  0  0  0
   -4.1764   -0.2686    1.8692 H   0  0  0  0  0  0  0  0  0  0  0  0
   -5.2821   -0.9365    0.6441 H   0  0  0  0  0  0  0  0  0  0  0  0
   -4.5803    1.0345   -1.5266 H   0  0  0  0  0  0  0  0  0  0  0  0
   -4.5277   -0.7203   -1.7995 H   0  0  0  0  0  0  0  0  0  0  0  0
   -3.0810    0.2704   -2.0947 H   0  0  0  0  0  0  0  0  0  0  0  0
    4.2533    2.7123    0.8076 H   0  0  0  0  0  0  0  0  0  0  0  0
    4.6225    2.3673   -0.8953 H   0  0  0  0  0  0  0  0  0  0  0  0
    4.3931    1.0267    0.2541 H   0  0  0  0  0  0  0  0  0  0  0  0
    2.1805    3.9774    0.0842 H   0  0  0  0  0  0  0  0  0  0  0  0
    1.0098    3.0872   -0.9164 H   0  0  0  0  0  0  0  0  0  0  0  0
    2.5589    3.6184   -1.6143 H   0  0  0  0  0  0  0  0  0  0  0  0
    2.6568   -3.3200   -0.1024 H   0  0  0  0  0  0  0  0  0  0  0  0
    3.6383   -2.3079    0.9717 H   0  0  0  0  0  0  0  0  0  0  0  0
    2.1264   -3.0393    1.5558 H   0  0  0  0  0  0  0  0  0  0  0  0
  1  2  1  0  0  0  0
  2  3  4  0  0  0  0
  3  4  4  0  0  0  0
  4  5  4  0  0  0  0
  5  6  4  0  0  0  0
  2  7  4  0  0  0  0
  6  7  4  0  0  0  0
  7  8  1  0  0  0  0
  8  9  1  0  0  0  0
  9 10  2  0  0  0  0
  9 11  4  0  0  0  0
 11 12  1  0  0  0  0
 11 13  1  0  0  0  0
  5 14  4  0  0  0  0
 14 15  1  0  0  0  0
 14 16  1  0  0  0  0
  3 17  1  0  0  0  0
  1 18  1  0  0  0  0
  1 19  1  0  0  0  0
  1 20  1  0  0  0  0
 12 21  1  0  0  0  0
 12 22  1  0  0  0  0
 12 23  1  0  0  0  0
 13 24  1  0  0  0  0
 13 25  1  0  0  0  0
 13 26  1  0  0  0  0
 15 27  1  0  0  0  0
 15 28  1  0  0  0  0
 15 29  1  0  0  0  0
 16 30  1  0  0  0  0
 16 31  1  0  0  0  0
 16 32  1  0  0  0  0
 17 33  1  0  0  0  0
 17 34  1  0  0  0  0
 17 35  1  0  0  0  0
M  END
