 xtb: 6.7.1 (edcfbbe)
          04112512523D

 21 20  0     0  0            999 V2000
    2.5501   -0.1844    0.6900 C   0  0  0  0  0  0  0  0  0  0  0  0
    1.1308   -0.6486    0.3812 C   0  0  0  0  0  0  0  0  0  0  0  0
    0.2360    0.5277   -0.0260 C   0  0  0  0  0  0  0  0  0  0  0  0
    0.3719    1.3411    0.6976 H   0  0  0  0  0  0  0  0  0  0  0  0
   -1.2708    0.1864   -0.0778 C   0  0  0  0  0  0  0  0  0  0  0  0
   -1.5712   -1.0813   -0.8773 C   0  0  0  0  0  0  0  0  0  0  0  0
   -1.8642    0.0788    1.3252 C   0  0  0  0  0  0  0  0  0  0  0  0
    0.6690    1.0954   -1.2520 O   0  0  0  0  0  0  0  0  0  0  0  0
    2.9503    0.3792   -0.1498 H   0  0  0  0  0  0  0  0  0  0  0  0
    3.1978   -1.0361    0.8814 H   0  0  0  0  0  0  0  0  0  0  0  0
    2.5565    0.4608    1.5656 H   0  0  0  0  0  0  0  0  0  0  0  0
    1.1591   -1.3751   -0.4331 H   0  0  0  0  0  0  0  0  0  0  0  0
    0.7068   -1.1339    1.2598 H   0  0  0  0  0  0  0  0  0  0  0  0
   -1.7464    1.0344   -0.5858 H   0  0  0  0  0  0  0  0  0  0  0  0
   -1.1377   -1.0342   -1.8734 H   0  0  0  0  0  0  0  0  0  0  0  0
   -1.1862   -1.9604   -0.3671 H   0  0  0  0  0  0  0  0  0  0  0  0
   -2.6469   -1.1965   -0.9865 H   0  0  0  0  0  0  0  0  0  0  0  0
   -2.9399   -0.0651    1.2628 H   0  0  0  0  0  0  0  0  0  0  0  0
   -1.6708    0.9841    1.8954 H   0  0  0  0  0  0  0  0  0  0  0  0
   -1.4395   -0.7652    1.8626 H   0  0  0  0  0  0  0  0  0  0  0  0
    0.6115    0.4191   -1.9411 H   0  0  0  0  0  0  0  0  0  0  0  0
  1  2  1  0  0  0  0
  2  3  1  0  0  0  0
  3  4  1  0  0  0  0
  3  5  1  0  0  0  0
  5  6  1  0  0  0  0
  5  7  1  0  0  0  0
  3  8  1  0  0  0  0
  1  9  1  0  0  0  0
  1 10  1  0  0  0  0
  1 11  1  0  0  0  0
  2 12  1  0  0  0  0
  2 13  1  0  0  0  0
  5 14  1  0  0  0  0
  6 15  1  0  0  0  0
  6 16  1  0  0  0  0
  6 17  1  0  0  0  0
  7 18  1  0  0  0  0
  7 19  1  0  0  0  0
  7 20  1  0  0  0  0
  8 21  1  0  0  0  0
M  END
