18
 xtb: 6.7.1 (edcfbbe)
C            2.09240475733734       -1.03786480833872       -0.42556007090332
C            1.75452921119696        0.36181826283303        0.08253172323401
C            0.36472788939869        0.51360295262962        0.71276515844505
C           -0.80800965908074        0.21987882997426       -0.23546376131078
H           -0.49993329046765        0.44410441920846       -1.26463371164556
C           -1.31368521352277       -1.21256946103660       -0.14625022839424
O           -1.91205600736136        1.13070896783070        0.00730857374142
H            3.12887810084007       -1.07932008162484       -0.77707998024047
H            1.45240327260710       -1.33285651459293       -1.26332190387613
H            1.97814399535985       -1.78665081324930        0.36690647929498
H            2.49983941171348        0.65904015563115        0.83009340903891
H            1.84476287198578        1.07821049483768       -0.74460212533521
H            0.28405229164248       -0.12714445025072        1.60200948981722
H            0.26252484945653        1.54975273756095        1.05526422525129
H           -1.71855883111725       -1.39889840604034        0.85595281494853
H           -2.10494236401892       -1.39274331447809       -0.88047823283208
H           -0.50931927236114       -1.93206141238180       -0.31993976882410
H           -2.22394858824039        0.95875471421184        0.90649063831695
