 xtb: 6.7.1 (edcfbbe)
          04112512193D

 22 23  0     0  0            999 V2000
   -3.2247    0.9602    0.0117 C   0  0  0  0  0  0  0  0  0  0  0  0
   -2.9127    0.2749    1.1732 C   0  0  0  0  0  0  0  0  0  0  0  0
   -1.7770   -0.5153    1.2295 C   0  0  0  0  0  0  0  0  0  0  0  0
   -0.9486   -0.6320    0.1227 C   0  0  0  0  0  0  0  0  0  0  0  0
   -1.2666    0.0595   -1.0401 C   0  0  0  0  0  0  0  0  0  0  0  0
   -2.3987    0.8520   -1.0953 C   0  0  0  0  0  0  0  0  0  0  0  0
    0.3077   -1.4688    0.1760 C   0  0  0  0  0  0  0  0  0  0  0  0
    1.4767   -0.6370    0.0164 N   0  0  0  0  0  0  0  0  0  0  0  0
    1.9438    0.2705    0.9225 C   0  0  0  0  0  0  0  0  0  0  0  0
    3.0162    0.8750    0.3337 C   0  0  0  0  0  0  0  0  0  0  0  0
    3.2126    0.3639   -0.9126 N   0  0  0  0  0  0  0  0  0  0  0  0
    2.2708   -0.5314   -1.0686 C   0  0  0  0  0  0  0  0  0  0  0  0
   -4.1083    1.5783   -0.0317 H   0  0  0  0  0  0  0  0  0  0  0  0
   -3.5521    0.3581    2.0389 H   0  0  0  0  0  0  0  0  0  0  0  0
   -1.5365   -1.0463    2.1389 H   0  0  0  0  0  0  0  0  0  0  0  0
   -0.6199   -0.0202   -1.9022 H   0  0  0  0  0  0  0  0  0  0  0  0
   -2.6370    1.3854   -2.0030 H   0  0  0  0  0  0  0  0  0  0  0  0
    0.3711   -1.9922    1.1337 H   0  0  0  0  0  0  0  0  0  0  0  0
    0.3080   -2.2041   -0.6326 H   0  0  0  0  0  0  0  0  0  0  0  0
    1.4878    0.4056    1.8807 H   0  0  0  0  0  0  0  0  0  0  0  0
    3.6597    1.6391    0.7211 H   0  0  0  0  0  0  0  0  0  0  0  0
    2.1450   -1.1285   -1.9496 H   0  0  0  0  0  0  0  0  0  0  0  0
  1  2  4  0  0  0  0
  2  3  4  0  0  0  0
  3  4  4  0  0  0  0
  4  5  4  0  0  0  0
  1  6  4  0  0  0  0
  5  6  4  0  0  0  0
  4  7  1  0  0  0  0
  7  8  1  0  0  0  0
  8  9  4  0  0  0  0
  9 10  2  0  0  0  0
 10 11  4  0  0  0  0
  8 12  4  0  0  0  0
 11 12  2  0  0  0  0
  1 13  1  0  0  0  0
  2 14  1  0  0  0  0
  3 15  1  0  0  0  0
  5 16  1  0  0  0  0
  6 17  1  0  0  0  0
  7 18  1  0  0  0  0
  7 19  1  0  0  0  0
  9 20  1  0  0  0  0
 10 21  1  0  0  0  0
 12 22  1  0  0  0  0
M  END
