21
 xtb: 6.7.1 (edcfbbe)
C            1.77952697853051        0.54212609510199       -1.12686531616248
C            1.06690285996800       -0.17886465811018        0.00669741485099
H            0.67015685854780       -1.13409710267139       -0.36652908832219
C           -0.06557103078960        0.64336883750964        0.63317700285368
C           -1.48601020072241        0.29324844857921        0.15264861522059
C           -1.65143112308461        0.41082877240632       -1.36324401240172
C           -1.92607919140734       -1.08863768422141        0.64085207501257
O            2.01437000796690       -0.47055233407406        1.07097317326983
H            2.20357793601447        1.48551545896177       -0.76588658780619
H            2.59021846099156       -0.07462542608397       -1.53081399963130
H            1.08738104463061        0.76717004315799       -1.94315282836660
H           -0.03253929321446        0.49131190088172        1.71845955692326
H            0.12634675578801        1.70931163576707        0.45544806197855
H           -2.15273953220991        1.03274483951479        0.61660934535803
H           -1.04874943296026       -0.33869891428814       -1.88912251941518
H           -1.35278377734019        1.40105765916350       -1.72466228472497
H           -2.69687151138004        0.24942174658391       -1.64831871185272
H           -2.96414976636749       -1.28794471099480        0.35350467782521
H           -1.30796625155919       -1.88376778761824        0.20862723676739
H           -1.85689665763181       -1.16309205051026        1.73155785828631
H            2.75470887943556       -0.94417236463573        0.66857514129666
