18
 xtb: 6.7.1 (edcfbbe)
C            2.24489400174945       -0.36978866901337       -0.76709892621521
C            1.53575658781789       -0.57605190898957        0.57021874378753
C            0.35230364214593        0.37043268337663        0.79764588303288
C           -0.75189509569347        0.29001627357941       -0.25443378414309
H           -0.34339102034876        0.55610001153532       -1.24019563233006
C           -1.40514159894617       -1.07471408949005       -0.33654399471730
O           -1.80667751513482        1.23394330476976        0.06992239476840
H            2.54562533840991        0.67654622159211       -0.89301120437884
H            1.60421244380486       -0.63647820800966       -1.61340561200237
H            3.14660817638204       -0.98730078311924       -0.83053858245868
H            1.19988747001434       -1.61660731190940        0.65284433014633
H            2.25296637541972       -0.42169131654652        1.38471250125764
H           -0.09904232454802        0.16482073227568        1.77724175609783
H            0.72384551357723        1.40480683215715        0.82288016427088
H           -2.23359895892668       -1.06070197308040       -1.05062783443486
H           -0.68529643362317       -1.82623262099385       -0.67032917184764
H           -1.79105277831016       -1.37629805600580        0.64336898926307
H           -1.39362401895598        2.10279444305310        0.15913357263717
