21
 xtb: 6.7.1 (edcfbbe)
C            2.18762420241252       -0.95369497334318       -0.79915757709918
C            1.60585289822587        0.35547071990963       -0.27231571037757
C            0.36605017024105        0.16564017630470        0.59932021880888
H            0.65098025106631       -0.43269851737146        1.48084157409639
C           -0.80032464736781       -0.55435458911609       -0.08433288939722
C           -1.97342111677573       -0.74162345566750        0.88052039616308
C           -1.25912651826173        0.12724693595661       -1.37440941489032
O           -0.11393220399409        1.45582646499739        1.05498554183726
H            2.36183182259458       -1.66565045508153        0.01567681362355
H            3.14595420897808       -0.77701374536277       -1.29687629295634
H            1.52092267352685       -1.42977347802696       -1.52474173905123
H            2.36127873362264        0.87008643212981        0.33646683613770
H            1.36384099839848        1.02636975927492       -1.10518761998567
H           -0.42096780276206       -1.55220426855811       -0.33974488411643
H           -1.64463799557117       -1.19866589443189        1.82094433066495
H           -2.45118152067493        0.21486008297903        1.11695845329839
H           -2.73442676387089       -1.39220611786418        0.43684039620953
H           -1.60132342940675        1.14996559453660       -1.18198537156954
H           -2.09647214634832       -0.42580438389629       -1.81334241302353
H           -0.46208197790093        0.16973205762904       -2.12355705521257
H            0.63337961741473        1.90219004791299        1.47331620632721
