 xtb: 6.7.1 (edcfbbe)
          04112511413D

 14 13  0     0  0            999 V2000
   -1.0076   -0.5885   -0.1149 C   0  0  0  0  0  0  0  0  0  0  0  0
    0.0422    0.2975    0.5681 C   0  0  0  0  0  0  0  0  0  0  0  0
    1.4089   -0.3948    0.6091 C   0  0  0  0  0  0  0  0  0  0  0  0
    1.7004   -0.9559   -0.6507 O   0  0  0  0  0  0  0  0  0  0  0  0
    0.1670    1.5331   -0.1032 O   0  0  0  0  0  0  0  0  0  0  0  0
   -2.2506    0.0679   -0.2100 O   0  0  0  0  0  0  0  0  0  0  0  0
   -1.0923   -1.5404    0.4191 H   0  0  0  0  0  0  0  0  0  0  0  0
   -0.6854   -0.7861   -1.1391 H   0  0  0  0  0  0  0  0  0  0  0  0
   -0.2648    0.4954    1.6102 H   0  0  0  0  0  0  0  0  0  0  0  0
    1.3835   -1.1775    1.3792 H   0  0  0  0  0  0  0  0  0  0  0  0
    2.1522    0.3618    0.8839 H   0  0  0  0  0  0  0  0  0  0  0  0
    2.6219   -1.2479   -0.6631 H   0  0  0  0  0  0  0  0  0  0  0  0
   -0.6813    1.7272   -0.5322 H   0  0  0  0  0  0  0  0  0  0  0  0
   -2.6477    0.1379    0.6698 H   0  0  0  0  0  0  0  0  0  0  0  0
  1  2  1  0  0  0  0
  2  3  1  0  0  0  0
  3  4  1  0  0  0  0
  2  5  1  0  0  0  0
  1  6  1  0  0  0  0
  1  7  1  0  0  0  0
  1  8  1  0  0  0  0
  2  9  1  0  0  0  0
  3 10  1  0  0  0  0
  3 11  1  0  0  0  0
  4 12  1  0  0  0  0
  5 13  1  0  0  0  0
  6 14  1  0  0  0  0
M  END
