 15

C      1.885000    -1.036000    -0.112000
C      2.921000    -1.631000     0.608000
C      2.878000    -1.652000     2.002000
C      1.800000    -1.079000     2.676000
C      0.764000    -0.484000     1.955000
C      0.807000    -0.463000     0.561000
C      1.755000    -1.101000     4.166000
Cl     2.539000     0.345000     4.841000
H      1.918000    -1.021000    -1.198000
H      3.760000    -2.078000     0.084000
H      3.690000    -2.117000     2.555000
H     -0.080000    -0.035000     2.471000
H     -0.001000    -0.001000     0.000000
H      2.267000    -1.984000     4.571000
H      0.722000    -1.131000     4.537000
