 xtb: 6.7.1 (edcfbbe)
          04112511063D

 14 13  0     0  0            999 V2000
   -3.8400   -0.7701   -0.0890 C   0  0  0  0  0  0  0  0  0  0  0  0
   -2.7358    0.1135    0.4791 C   0  0  0  0  0  0  0  0  0  0  0  0
   -1.3641   -0.3018   -0.0542 C   0  0  0  0  0  0  0  0  0  0  0  0
   -0.2790    0.5864    0.5205 C   0  0  0  0  0  0  0  0  0  0  0  0
    1.5024    0.0713   -0.1539 Br  0  0  0  0  0  0  0  0  0  0  0  0
   -3.6745   -1.8097    0.1830 H   0  0  0  0  0  0  0  0  0  0  0  0
   -4.8072   -0.4624    0.2988 H   0  0  0  0  0  0  0  0  0  0  0  0
   -3.8652   -0.6992   -1.1737 H   0  0  0  0  0  0  0  0  0  0  0  0
   -2.7369    0.0430    1.5687 H   0  0  0  0  0  0  0  0  0  0  0  0
   -2.9280    1.1544    0.2114 H   0  0  0  0  0  0  0  0  0  0  0  0
   -1.1669   -1.3423    0.2135 H   0  0  0  0  0  0  0  0  0  0  0  0
   -1.3581   -0.2303   -1.1442 H   0  0  0  0  0  0  0  0  0  0  0  0
   -0.2159    0.5040    1.6043 H   0  0  0  0  0  0  0  0  0  0  0  0
   -0.4099    1.6282    0.2331 H   0  0  0  0  0  0  0  0  0  0  0  0
  1  2  1  0  0  0  0
  2  3  1  0  0  0  0
  3  4  1  0  0  0  0
  4  5  1  0  0  0  0
  1  6  1  0  0  0  0
  1  7  1  0  0  0  0
  1  8  1  0  0  0  0
  2  9  1  0  0  0  0
  2 10  1  0  0  0  0
  3 11  1  0  0  0  0
  3 12  1  0  0  0  0
  4 13  1  0  0  0  0
  4 14  1  0  0  0  0
M  END
