 11

C     -0.896000     0.136000    -1.000000
C     -0.351000     0.189000     0.418000
C      1.088000    -0.289000     0.472000
Br     1.743000    -0.205000     2.303000
H     -1.934000     0.484000    -1.021000
H     -0.310000     0.775000    -1.669000
H     -0.872000    -0.886000    -1.392000
H     -0.982000    -0.431000     1.068000
H     -0.425000     1.217000     0.793000
H      1.752000     0.341000    -0.126000
H      1.187000    -1.330000     0.152000
