22
 xtb: 6.7.1 (edcfbbe)
C           -4.07518466336137        0.46965299270190        0.94436030061519
C           -3.48382318838852        0.50227709261775       -0.44645897697451
O           -2.03079362040015        0.65291106609371       -0.39121668091237
C           -1.30732030597165       -0.46647914053928       -0.18999664707786
O           -1.80619267903364       -1.58210199126249       -0.10066603316688
C            0.13994868325546       -0.20088021420805       -0.10121841513453
C            0.67352644362730        1.09363026257276       -0.16617470127830
C            2.04049810249172        1.29775426082799       -0.07410057509490
C            2.89343287187012        0.20164812646373        0.08356319067451
C            2.37676664711391       -1.09578065007950        0.14906691406777
C            1.01044241771596       -1.28836076968757        0.05815133640931
O            4.24765737619098        0.34160038104193        0.18036408100290
H           -5.16588793964408        0.41840750124432        0.86609826106541
H           -3.72971763852984       -0.40308874904724        1.50495642639415
H           -3.81328317768901        1.37581805146171        1.49833730519488
H           -3.81670820145664        1.38130977128440       -1.00156647541018
H           -3.72476918140207       -0.39713480751933       -1.01836916877248
H            0.01835418518031        1.94813314487925       -0.28674292356699
H            2.45412428716190        2.30100499365533       -0.12257888085469
H            3.05359292453935       -1.93484001060892        0.27105838984465
H            0.60401558303190       -2.29249996462712        0.10932725450873
H            4.48193646360339        1.27976498299171        0.12708527702187
