 xtb: 6.7.1 (edcfbbe)
          04112512013D

 22 22  0     0  0            999 V2000
    4.7688    0.7265   -1.2258 C   0  0  0  0  0  0  0  0  0  0  0  0
    3.4714    0.8326   -0.4282 C   0  0  0  0  0  0  0  0  0  0  0  0
    3.2834   -0.3745    0.4578 C   0  0  0  0  0  0  0  0  0  0  0  0
    4.2176   -1.0545    0.8620 O   0  0  0  0  0  0  0  0  0  0  0  0
    2.0171   -0.7463    0.7956 N   0  0  0  0  0  0  0  0  0  0  0  0
    0.7707   -0.1996    0.4926 C   0  0  0  0  0  0  0  0  0  0  0  0
    0.5290    1.1715    0.4214 C   0  0  0  0  0  0  0  0  0  0  0  0
   -0.7377    1.6437    0.1322 C   0  0  0  0  0  0  0  0  0  0  0  0
   -1.7865    0.7631   -0.0781 C   0  0  0  0  0  0  0  0  0  0  0  0
   -1.5596   -0.6053    0.0200 C   0  0  0  0  0  0  0  0  0  0  0  0
   -0.2946   -1.0830    0.3052 C   0  0  0  0  0  0  0  0  0  0  0  0
   -2.8623   -1.7250   -0.2148 Cl  0  0  0  0  0  0  0  0  0  0  0  0
   -3.3714    1.3647   -0.4414 Cl  0  0  0  0  0  0  0  0  0  0  0  0
    5.6082    0.5670   -0.5538 H   0  0  0  0  0  0  0  0  0  0  0  0
    4.9354    1.6369   -1.7937 H   0  0  0  0  0  0  0  0  0  0  0  0
    4.7248   -0.1143   -1.9136 H   0  0  0  0  0  0  0  0  0  0  0  0
    2.6177    0.9326   -1.0979 H   0  0  0  0  0  0  0  0  0  0  0  0
    3.5243    1.7150    0.2129 H   0  0  0  0  0  0  0  0  0  0  0  0
    1.9860   -1.6475    1.2618 H   0  0  0  0  0  0  0  0  0  0  0  0
    1.3149    1.8776    0.6211 H   0  0  0  0  0  0  0  0  0  0  0  0
   -0.9220    2.7035    0.0774 H   0  0  0  0  0  0  0  0  0  0  0  0
   -0.1391   -2.1471    0.3764 H   0  0  0  0  0  0  0  0  0  0  0  0
  1  2  1  0  0  0  0
  2  3  1  0  0  0  0
  3  4  2  0  0  0  0
  3  5  4  0  0  0  0
  5  6  1  0  0  0  0
  6  7  4  0  0  0  0
  7  8  4  0  0  0  0
  8  9  4  0  0  0  0
  9 10  4  0  0  0  0
  6 11  4  0  0  0  0
 10 11  4  0  0  0  0
 10 12  1  0  0  0  0
  9 13  1  0  0  0  0
  1 14  1  0  0  0  0
  1 15  1  0  0  0  0
  1 16  1  0  0  0  0
  2 17  1  0  0  0  0
  2 18  1  0  0  0  0
  5 19  1  0  0  0  0
  7 20  1  0  0  0  0
  8 21  1  0  0  0  0
 11 22  1  0  0  0  0
M  END
