 xtb: 6.7.1 (edcfbbe)
          04112511013D

 20 19  0     0  0            999 V2000
   -2.1053   -0.5740    0.6483 C   0  0  0  0  0  0  0  0  0  0  0  0
   -1.3676   -0.3445   -0.6666 C   0  0  0  0  0  0  0  0  0  0  0  0
    0.0411    0.2531   -0.5230 C   0  0  0  0  0  0  0  0  0  0  0  0
   -0.0055    1.6477    0.0997 C   0  0  0  0  0  0  0  0  0  0  0  0
    0.9713   -0.6825    0.2588 C   0  0  0  0  0  0  0  0  0  0  0  0
    2.4462   -0.3312    0.0952 C   0  0  0  0  0  0  0  0  0  0  0  0
   -1.5623   -1.2686    1.2833 H   0  0  0  0  0  0  0  0  0  0  0  0
   -2.2403    0.3595    1.1873 H   0  0  0  0  0  0  0  0  0  0  0  0
   -3.0885   -0.9946    0.4493 H   0  0  0  0  0  0  0  0  0  0  0  0
   -1.9635    0.3252   -1.2918 H   0  0  0  0  0  0  0  0  0  0  0  0
   -1.2867   -1.2976   -1.1955 H   0  0  0  0  0  0  0  0  0  0  0  0
    0.4441    0.3512   -1.5389 H   0  0  0  0  0  0  0  0  0  0  0  0
   -0.7405    2.2656   -0.4113 H   0  0  0  0  0  0  0  0  0  0  0  0
    0.9616    2.1365    0.0174 H   0  0  0  0  0  0  0  0  0  0  0  0
   -0.2700    1.5928    1.1526 H   0  0  0  0  0  0  0  0  0  0  0  0
    0.7139   -0.6508    1.3189 H   0  0  0  0  0  0  0  0  0  0  0  0
    0.8151   -1.7055   -0.0926 H   0  0  0  0  0  0  0  0  0  0  0  0
    2.6615    0.6522    0.5044 H   0  0  0  0  0  0  0  0  0  0  0  0
    2.7250   -0.3352   -0.9564 H   0  0  0  0  0  0  0  0  0  0  0  0
    3.0655   -1.0575    0.6165 H   0  0  0  0  0  0  0  0  0  0  0  0
  1  2  1  0  0  0  0
  2  3  1  0  0  0  0
  3  4  1  0  0  0  0
  3  5  1  0  0  0  0
  5  6  1  0  0  0  0
  1  7  1  0  0  0  0
  1  8  1  0  0  0  0
  1  9  1  0  0  0  0
  2 10  1  0  0  0  0
  2 11  1  0  0  0  0
  3 12  1  0  0  0  0
  4 13  1  0  0  0  0
  4 14  1  0  0  0  0
  4 15  1  0  0  0  0
  5 16  1  0  0  0  0
  5 17  1  0  0  0  0
  6 18  1  0  0  0  0
  6 19  1  0  0  0  0
  6 20  1  0  0  0  0
M  END
