 xtb: 6.7.1 (edcfbbe)
          04112511193D

 14 13  0     0  0            999 V2000
   -1.0276   -0.3636   -0.3836 C   0  0  0  0  0  0  0  0  0  0  0  0
    0.1450    0.3843    0.2650 C   0  0  0  0  0  0  0  0  0  0  0  0
    1.4712   -0.0942   -0.3472 C   0  0  0  0  0  0  0  0  0  0  0  0
    1.6656   -1.4422    0.0147 O   0  0  0  0  0  0  0  0  0  0  0  0
   -0.0443    1.7660    0.0601 O   0  0  0  0  0  0  0  0  0  0  0  0
   -2.2430   -0.2216    0.3077 O   0  0  0  0  0  0  0  0  0  0  0  0
   -0.7516   -1.4211   -0.4757 H   0  0  0  0  0  0  0  0  0  0  0  0
   -1.2016    0.0577   -1.3760 H   0  0  0  0  0  0  0  0  0  0  0  0
    0.1607    0.1494    1.3403 H   0  0  0  0  0  0  0  0  0  0  0  0
    2.2883    0.5303    0.0384 H   0  0  0  0  0  0  0  0  0  0  0  0
    1.4199    0.0232   -1.4368 H   0  0  0  0  0  0  0  0  0  0  0  0
    2.4856   -1.7667   -0.3829 H   0  0  0  0  0  0  0  0  0  0  0  0
    0.6026    2.2697    0.5737 H   0  0  0  0  0  0  0  0  0  0  0  0
   -2.1496   -0.5889    1.1981 H   0  0  0  0  0  0  0  0  0  0  0  0
  1  2  1  0  0  0  0
  2  3  1  0  0  0  0
  3  4  1  0  0  0  0
  2  5  1  0  0  0  0
  1  6  1  0  0  0  0
  1  7  1  0  0  0  0
  1  8  1  0  0  0  0
  2  9  1  0  0  0  0
  3 10  1  0  0  0  0
  3 11  1  0  0  0  0
  4 12  1  0  0  0  0
  5 13  1  0  0  0  0
  6 14  1  0  0  0  0
M  END
