 xtb: 6.7.1 (edcfbbe)
          04112512143D

 21 20  0     0  0            999 V2000
    2.2313   -0.9800   -0.7313 C   0  0  0  0  0  0  0  0  0  0  0  0
    1.6061    0.3420   -0.3037 C   0  0  0  0  0  0  0  0  0  0  0  0
    0.3512    0.1772    0.5664 C   0  0  0  0  0  0  0  0  0  0  0  0
    0.6292   -0.4069    1.4619 H   0  0  0  0  0  0  0  0  0  0  0  0
   -0.8043   -0.5700   -0.1267 C   0  0  0  0  0  0  0  0  0  0  0  0
   -1.9456   -0.7787    0.8686 C   0  0  0  0  0  0  0  0  0  0  0  0
   -1.3089    0.1793   -1.3577 C   0  0  0  0  0  0  0  0  0  0  0  0
   -0.1382    1.4444    0.9774 O   0  0  0  0  0  0  0  0  0  0  0  0
    2.4015   -1.6170    0.1338 H   0  0  0  0  0  0  0  0  0  0  0  0
    3.1860   -0.7971   -1.2178 H   0  0  0  0  0  0  0  0  0  0  0  0
    1.5910   -1.5104   -1.4303 H   0  0  0  0  0  0  0  0  0  0  0  0
    2.3413    0.9046    0.2788 H   0  0  0  0  0  0  0  0  0  0  0  0
    1.3553    0.9413   -1.1797 H   0  0  0  0  0  0  0  0  0  0  0  0
   -0.4287   -1.5517   -0.4294 H   0  0  0  0  0  0  0  0  0  0  0  0
   -1.6033   -1.3464    1.7310 H   0  0  0  0  0  0  0  0  0  0  0  0
   -2.3137    0.1846    1.2126 H   0  0  0  0  0  0  0  0  0  0  0  0
   -2.7627   -1.3202    0.3989 H   0  0  0  0  0  0  0  0  0  0  0  0
   -1.5651    1.1997   -1.0843 H   0  0  0  0  0  0  0  0  0  0  0  0
   -2.1957   -0.3102   -1.7523 H   0  0  0  0  0  0  0  0  0  0  0  0
   -0.5557    0.2029   -2.1404 H   0  0  0  0  0  0  0  0  0  0  0  0
    0.5690    1.9265    1.4244 H   0  0  0  0  0  0  0  0  0  0  0  0
  1  2  1  0  0  0  0
  2  3  1  0  0  0  0
  3  4  1  0  0  0  0
  3  5  1  0  0  0  0
  5  6  1  0  0  0  0
  5  7  1  0  0  0  0
  3  8  1  0  0  0  0
  1  9  1  0  0  0  0
  1 10  1  0  0  0  0
  1 11  1  0  0  0  0
  2 12  1  0  0  0  0
  2 13  1  0  0  0  0
  5 14  1  0  0  0  0
  6 15  1  0  0  0  0
  6 16  1  0  0  0  0
  6 17  1  0  0  0  0
  7 18  1  0  0  0  0
  7 19  1  0  0  0  0
  7 20  1  0  0  0  0
  8 21  1  0  0  0  0
M  END
