15
 xtb: 6.7.1 (edcfbbe)
C            2.42897781500651       -0.30612728665999       -0.26056431178890
C            1.10450964666546       -0.13713159044915        0.47635590861043
C           -0.03851162214220        0.26303248359433       -0.46751860970462
C           -1.33265108632962        0.46049837117598        0.25541512091431
C           -2.44895932454721       -0.23217735610103        0.03354660144777
H            3.23264621105646       -0.59091871278847        0.42607825656246
H            2.72420886651480        0.62591841846864       -0.75526711113457
H            2.35416500610270       -1.08323446586609       -1.02942427538193
H            0.83760829551479       -1.07242039289479        0.98390342348601
H            1.20832649363068        0.62587991707416        1.25836607851855
H           -0.15964392101910       -0.49819294205350       -1.24832148059255
H            0.24275424561907        1.20052019034977       -0.96898868302535
H           -1.32986682084976        1.22650707395190        1.03295782308758
H           -3.35517120240491       -0.04626623892063        0.60322399039217
H           -2.49053644718105       -1.00573757924591       -0.73069121988717
