 xtb: 6.7.1 (edcfbbe)
          04112511193D

 14 13  0     0  0            999 V2000
   -1.3020    0.0546    0.5462 C   0  0  0  0  0  0  0  0  0  0  0  0
    0.1002    0.6869    0.6305 C   0  0  0  0  0  0  0  0  0  0  0  0
    1.2074   -0.3809    0.6566 C   0  0  0  0  0  0  0  0  0  0  0  0
    1.2362   -1.2247   -0.4653 O   0  0  0  0  0  0  0  0  0  0  0  0
    0.3207    1.5395   -0.4764 O   0  0  0  0  0  0  0  0  0  0  0  0
   -1.4877   -0.6682   -0.6511 O   0  0  0  0  0  0  0  0  0  0  0  0
   -2.0636    0.8420    0.6306 H   0  0  0  0  0  0  0  0  0  0  0  0
   -1.4414   -0.6547    1.3635 H   0  0  0  0  0  0  0  0  0  0  0  0
    0.1740    1.2467    1.5727 H   0  0  0  0  0  0  0  0  0  0  0  0
    1.0883   -0.9698    1.5777 H   0  0  0  0  0  0  0  0  0  0  0  0
    2.1788    0.1191    0.6782 H   0  0  0  0  0  0  0  0  0  0  0  0
    0.3307   -1.5420   -0.6313 H   0  0  0  0  0  0  0  0  0  0  0  0
   -0.1816    2.3580   -0.3640 H   0  0  0  0  0  0  0  0  0  0  0  0
   -1.2491   -0.0854   -1.3896 H   0  0  0  0  0  0  0  0  0  0  0  0
  1  2  1  0  0  0  0
  2  3  1  0  0  0  0
  3  4  1  0  0  0  0
  2  5  1  0  0  0  0
  1  6  1  0  0  0  0
  1  7  1  0  0  0  0
  1  8  1  0  0  0  0
  2  9  1  0  0  0  0
  3 10  1  0  0  0  0
  3 11  1  0  0  0  0
  4 12  1  0  0  0  0
  5 13  1  0  0  0  0
  6 14  1  0  0  0  0
M  END
