  40
 
 C         -4.8433299980       -0.2632079728        0.3202047675
 N         -4.2762429898        1.0689418151        0.3678018416
 C         -5.1976129379        2.0401976630       -0.1864322760
 C         -2.9845404071        1.1392042188       -0.2899056967
 C         -1.9007683602        0.3951891446        0.4882050983
 O         -0.6522081915        0.8613478162        0.0322816465
 C          0.4441165158        0.2410090633        0.6730431443
 C          0.5918851890       -1.2181900906        0.2813486336
 C          0.9176814821       -2.1854586896        1.2209825516
 C          1.0806314680       -3.5050718899        0.8363576851
 C          0.9105169306       -3.8689922489       -0.4882371318
 C          0.5798102251       -2.9079015547       -1.4291802587
 C          0.4270098569       -1.5880522922       -1.0471459326
 C          1.7215872944        0.9496659411        0.2805904494
 C          2.8497082194        0.8309742258        1.0819455740
 C          4.0361828988        1.4371972769        0.7119650705
 C          4.1063557219        2.1680188105       -0.4622199452
 C          2.9839884267        2.2895459467       -1.2628652074
 C          1.7969414697        1.6801834096       -0.8959951434
 H         -4.1839703265       -0.9594368571        0.8334014537
 H         -5.0002583648       -0.6197498340       -0.7105714370
 H         -5.8030226508       -0.2565470310        0.8347809257
 H         -4.7754103278        3.0377633996       -0.0782104569
 H         -6.1329091582        1.9976803373        0.3697332267
 H         -5.4151195341        1.8637161075       -1.2516511278
 H         -2.6792997834        2.1873119627       -0.3324506927
 H         -3.0212281063        0.7539215484       -1.3241750680
 H         -1.9736227107       -0.6918848635        0.3404458402
 H         -2.0186602857        0.6075823910        1.5622254837
 H          0.3133173144        0.3073709417        1.7676301692
 H          1.0418438521       -1.9069897533        2.2582352606
 H          1.3364441076       -4.2516410778        1.5740588177
 H          1.0340301981       -4.8997195973       -0.7865642651
 H          0.4439710549       -3.1879338062       -2.4636912613
 H          0.1694163976       -0.8307002769       -1.7723579149
 H          2.7980026917        0.2617317728        1.9991618261
 H          4.9077681489        1.3415662616        1.3430013144
 H          5.0329712289        2.6428379115       -0.7497976263
 H          3.0330129541        2.8605579489       -2.1787344619
 H          0.9151132131        1.7778819432       -1.5086386263
          40
        -54.07158406
 C         -3.7536053604       -0.3764718467       -0.5384156329
 N         -2.7406114476       -1.4100384157       -0.4758736138
 C         -3.0985286090       -2.5277459146       -1.3269207391
 C         -2.4844032705       -1.8453683923        0.8900098235
 C         -1.6370880647       -0.8576334962        1.7041847508
 O         -0.2594110278       -0.9340697037        1.4334034662
 C          0.1145677910       -0.4300795624        0.1589182267
 C         -0.1238003684        1.0640739325        0.0491533359
 C         -0.7658168446        1.6044730275       -1.0556925544
 C         -0.9615575175        2.9714783779       -1.1492115324
 C         -0.5230047411        3.8073790426       -0.1364622312
 C          0.1144567964        3.2720948771        0.9706198553
 C          0.3168070316        1.9071315829        1.0610665480
 C          1.5872845415       -0.6835396625       -0.0662523278
 C          2.1104180401       -0.5603620843       -1.3477909337
 C          3.4614177659       -0.7482091454       -1.5725112395
 C          4.3042294501       -1.0623275443       -0.5190122370
 C          3.7874807977       -1.1866622443        0.7585919793
 C          2.4355847344       -0.9945878638        0.9858312484
 H         -3.4371048850        0.4889058919        0.0398689132
 H         -4.7276989420       -0.7204112532       -0.1544306374
 H         -3.8791131479       -0.0653629353       -1.5744064690
 H         -3.2348828473       -2.1670943669       -2.3457667738
 H         -4.0260831064       -3.0273100723       -1.0069515591
 H         -2.2901360093       -3.2577580080       -1.3240322112
 H         -1.9307708357       -2.7867977145        0.8489437555
 H         -3.4291435588       -2.0274085567        1.4332058866
 H         -1.7243327138       -1.1167698107        2.7631792138
 H         -1.9978690788        0.1699866704        1.5660786135
 H         -0.4691364116       -0.9387984063       -0.6209381385
 H         -1.1198083288        0.9501635479       -1.8390926994
 H         -1.4624418618        3.3855328246       -2.0125609442
 H         -0.6793917965        4.8738703023       -0.2086987087
 H          0.4564699949        3.9209775198        1.7638537904
 H          0.8115880874        1.4799600759        1.9207567695
 H          1.4539503821       -0.3139616908       -2.1701780159
 H          3.8589425278       -0.6508889995       -2.5724490258
 H          5.3596889946       -1.2103811907       -0.6954198694
 H          4.4402642925       -1.4328485500        1.5836887148
 H          2.0237432727       -1.0958884240        1.9771325853
