 40

C     -3.031000    -4.399000     0.798000
N     -2.952000    -3.684000     2.071000
C     -4.046000    -2.720000     2.185000
C     -1.661000    -3.009000     2.199000
C     -0.588000    -4.000000     2.633000
O      0.656000    -3.321000     2.750000
C      1.695000    -4.202000     3.154000
C      2.202000    -5.002000     1.968000
C      2.713000    -6.286000     2.160000
C      3.179000    -7.021000     1.070000
C      3.136000    -6.472000    -0.212000
C      2.625000    -5.188000    -0.403000
C      2.159000    -4.453000     0.687000
C      2.811000    -3.474000     3.886000
C      3.553000    -4.137000     4.863000
C      4.577000    -3.469000     5.535000
C      4.858000    -2.138000     5.228000
C      4.116000    -1.474000     4.251000
C      3.092000    -2.143000     3.579000
H     -2.211000    -5.117000     0.719000
H     -2.964000    -3.694000    -0.036000
H     -3.979000    -4.938000     0.726000
H     -3.962000    -2.206000     3.137000
H     -4.991000    -3.251000     2.132000
H     -3.975000    -2.008000     1.371000
H     -1.750000    -2.193000     2.932000
H     -1.387000    -2.571000     1.228000
H     -0.471000    -4.793000     1.889000
H     -0.835000    -4.451000     3.600000
H      1.216000    -4.898000     3.859000
H      2.751000    -6.721000     3.155000
H      3.577000    -8.021000     1.219000
H      3.499000    -7.044000    -1.060000
H      2.592000    -4.760000    -1.401000
H      1.762000    -3.454000     0.527000
H      3.339000    -5.174000     5.108000
H      5.154000    -3.985000     6.295000
H      5.656000    -1.617000     5.751000
H      4.336000    -0.438000     4.013000
H      2.520000    -1.618000     2.819000
