  20
 
 C         -1.2406562798       -0.9825304319        1.2491136209
 C         -1.0201370003       -0.1216559137        0.0009843878
 C         -1.9582530170        1.0839793112        0.0146671785
 C         -1.2469085128       -0.9585848893       -1.2624901137
 C          0.4230178451        0.3701785970        0.0002499621
 O          0.7672221138        1.5220973753       -0.0005055624
 O          1.2920224305       -0.6508615711       -0.0017817925
 C          2.6670892703       -0.2978452233       -0.0042367097
 H         -0.5636115520       -1.8328408474        1.2491392763
 H         -1.0673359641       -0.3985100145        2.1506468186
 H         -2.2644395852       -1.3498299679        1.2676120401
 H         -1.7876141090        1.7065715465       -0.8598574126
 H         -1.7812500746        1.6916428247        0.8983820891
 H         -2.9937964316        0.7528027342        0.0156658786
 H         -1.0712112658       -0.3592859951       -2.1535293393
 H         -0.5746569240       -1.8125545025       -1.2786191768
 H         -2.2728154113       -1.3195519162       -1.2864825624
 H          3.2227483892       -1.2320886858        0.0017472184
 H          2.9072024856        0.2974563206        0.8791224452
 H          2.9072041582        0.2858299531       -0.8953312182
          20
        -27.11715787
 C         -1.2416818989        0.9598532121        1.2553672629
 C         -1.0126290555        0.1115923034       -0.0000445183
 C         -1.2395509585        0.9591061979       -1.2563692257
 C         -1.9433882444       -1.0997921041       -0.0004246505
 C          0.4332368144       -0.3723101247        0.0006390589
 O          0.7844247294       -1.5223467618        0.0004862778
 O          1.2966170050        0.6532307268        0.0009339877
 C          2.6731512431        0.3070428464       -0.0004025370
 H         -2.2691598887        1.3160894101        1.2764463558
 H         -1.0625590057        0.3700050652        2.1518181420
 H         -0.5734307775        1.8170732826        1.2625352014
 H         -2.2662733599        1.3174141169       -1.2783858895
 H         -1.0610897000        0.3681094901       -2.1522136269
 H         -0.5696492065        1.8149433859       -1.2639576397
 H         -1.7661185767       -1.7137834710        0.8786658832
 H         -2.9807198778       -0.7748387064       -0.0008497857
 H         -1.7653713769       -1.7137120249       -0.8794575347
 H          2.9152985500       -0.2892399459        0.8817057635
 H          3.2239241423        1.2441316675        0.0081348628
 H          2.9172520207       -0.2737964948       -0.8922743551
