  17
 
 C          0.9260000000        0.3340000000       -1.5530000000
 C          1.1130000000        1.2060000000       -0.3130000000
 C         -0.1460000000        1.2510000000        0.5410000000
 C         -0.6340000000       -0.1480000000        0.8460000000
 O         -1.0070000000       -0.4690000000        1.9740000000
 C         -0.7630000000       -1.0890000000       -0.3300000000
 C          0.5100000000       -1.0830000000       -1.1650000000
 H          1.8620000000        0.2990000000       -2.1220000000
 H          0.1660000000        0.7780000000       -2.2070000000
 H          1.9450000000        0.8090000000        0.2820000000
 H          1.3910000000        2.2220000000       -0.6140000000
 H          0.0620000000        1.7720000000        1.4820000000
 H         -0.9500000000        1.7850000000        0.0240000000
 H         -0.9600000000       -2.1010000000        0.0390000000
 H         -1.6240000000       -0.7700000000       -0.9280000000
 H          1.3230000000       -1.5530000000       -0.5960000000
 H          0.3610000000       -1.6860000000       -2.0680000000
