  26
 
 C          3.8202621070        2.1026736646        0.2138358536
 O          3.3703603057        1.0674416326       -0.6508975004
 P          2.2099308494        0.0707784509       -0.2071920193
 S          2.2145467653       -0.4738960115        1.6629560998
 O          2.3258647057       -1.0659561003       -1.3159971465
 C          3.2633779037       -2.1232268431       -1.1504094995
 O          0.9265192829        0.8798211429       -0.7459483635
 C         -0.3753398908        0.5546098480       -0.4978027822
 C         -0.7704335468       -0.7336800429       -0.1579670827
 C         -2.1043271648       -1.0020965530        0.0725837704
 C         -3.0376769012        0.0208435431       -0.0435754421
 C         -2.6480155045        1.3111171663       -0.3882435955
 C         -1.3151207849        1.5781384274       -0.6136318642
 N         -4.4315791361       -0.2585650592        0.1937807280
 O         -5.2106414342        0.6664645982        0.1126732489
 O         -4.7384652525       -1.4003391163        0.4589708320
 H          4.8566220622        2.3060878182       -0.0516975267
 H          3.7571372274        1.7821079118        1.2570422110
 H          3.2164724009        2.9995520088        0.0714394730
 H          2.9091619362       -2.9524329063       -1.7610519869
 H          3.3165307615       -2.4247788535       -0.1009107312
 H          4.2508893298       -1.8069406530       -1.4870033420
 H         -0.0279362148       -1.5119628096       -0.0728775744
 H         -2.4360430414       -1.9928736557        0.3427898714
 H         -3.3964212637        2.0844531916       -0.4696969719
 H         -0.9818185867        2.5683916694       -0.8796120004
          26
        -51.26970845
 C          3.9430962549        1.8782093005        0.5625473405
 O          3.3932753929        1.0127753400       -0.4226342179
 P          2.2080437779        0.0085486053       -0.0742545907
 S          2.2516644320       -0.7741627590        1.7095064443
 O          2.2429941802       -0.9794526144       -1.3230987447
 C          3.1385052270       -2.0846169493       -1.3266698279
 O          0.9454489115        0.9265677062       -0.4668610291
 C         -0.3684518185        0.5977367937       -0.3058807158
 C         -1.2917150520        1.6380969360       -0.4083675501
 C         -2.6374078693        1.3744288160       -0.2742293767
 C         -3.0570800357        0.0702497561       -0.0322129258
 C         -2.1404156632       -0.9684318006        0.0753196353
 C         -0.7933854795       -0.7033663444       -0.0654081415
 N         -4.4648917582       -0.2070690507        0.1050151247
 O         -4.7953824836       -1.3578496281        0.2912576997
 O         -5.2314726470        0.7282148188        0.0222628190
 H          4.9841293543        2.0458616503        0.2899490820
 H          3.8854833476        1.4152479101        1.5513223848
 H          3.4033617654        2.8256517471        0.5718212662
 H          2.7296123971       -2.8149471436       -2.0233548375
 H          3.2120053999       -2.5193091664       -0.3262324331
 H          4.1276210611       -1.7666850934       -1.6571386401
 H         -0.9349472991        2.6381828424       -0.5952882019
 H         -3.3733480745        2.1600306726       -0.3513676286
 H         -2.4953565364       -1.9694535400        0.2669359815
 H         -0.0645386523       -1.4948513296        0.0158182577
