 xtb: 6.7.1 (edcfbbe)
          04112512083D

 22 22  0     0  0            999 V2000
   -4.0854    0.4874    0.9468 C   0  0  0  0  0  0  0  0  0  0  0  0
   -3.4489    0.5074   -0.4351 C   0  0  0  0  0  0  0  0  0  0  0  0
   -2.0229    0.6370   -0.3496 O   0  0  0  0  0  0  0  0  0  0  0  0
   -1.3004   -0.4745   -0.1926 C   0  0  0  0  0  0  0  0  0  0  0  0
   -1.7991   -1.5871   -0.1437 O   0  0  0  0  0  0  0  0  0  0  0  0
    0.1434   -0.2130   -0.0997 C   0  0  0  0  0  0  0  0  0  0  0  0
    0.6631    1.0799   -0.1626 C   0  0  0  0  0  0  0  0  0  0  0  0
    2.0226    1.2872   -0.0725 C   0  0  0  0  0  0  0  0  0  0  0  0
    2.8904    0.2056    0.0827 C   0  0  0  0  0  0  0  0  0  0  0  0
    2.3718   -1.0903    0.1469 C   0  0  0  0  0  0  0  0  0  0  0  0
    1.0147   -1.2936    0.0566 C   0  0  0  0  0  0  0  0  0  0  0  0
    4.2251    0.3561    0.1750 O   0  0  0  0  0  0  0  0  0  0  0  0
   -5.1653    0.4596    0.8449 H   0  0  0  0  0  0  0  0  0  0  0  0
   -3.7587   -0.3948    1.4931 H   0  0  0  0  0  0  0  0  0  0  0  0
   -3.7982    1.3750    1.5040 H   0  0  0  0  0  0  0  0  0  0  0  0
   -3.7690    1.3793   -1.0067 H   0  0  0  0  0  0  0  0  0  0  0  0
   -3.6852   -0.4121   -0.9797 H   0  0  0  0  0  0  0  0  0  0  0  0
   -0.0088    1.9144   -0.2827 H   0  0  0  0  0  0  0  0  0  0  0  0
    2.4164    2.2912   -0.1225 H   0  0  0  0  0  0  0  0  0  0  0  0
    3.0556   -1.9148    0.2674 H   0  0  0  0  0  0  0  0  0  0  0  0
    0.5980   -2.2881    0.1041 H   0  0  0  0  0  0  0  0  0  0  0  0
    4.4814    1.2909    0.1192 H   0  0  0  0  0  0  0  0  0  0  0  0
  1  2  1  0  0  0  0
  2  3  1  0  0  0  0
  3  4  1  0  0  0  0
  4  5  2  0  0  0  0
  4  6  1  0  0  0  0
  6  7  4  0  0  0  0
  7  8  4  0  0  0  0
  8  9  4  0  0  0  0
  9 10  4  0  0  0  0
  6 11  4  0  0  0  0
 10 11  4  0  0  0  0
  9 12  1  0  0  0  0
  1 13  1  0  0  0  0
  1 14  1  0  0  0  0
  1 15  1  0  0  0  0
  2 16  1  0  0  0  0
  2 17  1  0  0  0  0
  7 18  1  0  0  0  0
  8 19  1  0  0  0  0
 10 20  1  0  0  0  0
 11 21  1  0  0  0  0
 12 22  1  0  0  0  0
M  END
