20
 xtb: 6.7.1 (edcfbbe)
C           -2.24928141319672        0.23574491308821       -1.25649018439679
C           -1.94598626458423        0.05684277084553        0.23167619088016
C           -2.12068870554874       -1.39825188142422        0.66819323171802
C           -0.57435569523143        0.59568559728751        0.59696865964507
O            0.42815233144773       -0.17877215942831       -0.13296703099068
C            1.71054583334235        0.17250388841805        0.05122946166022
O            2.05631287922243        1.07428839180398        0.79950828385227
C            2.64118087005921       -0.64204873218985       -0.78842622281565
H           -1.58606241482442       -0.38388016897961       -1.86924617827406
H           -2.12368596160411        1.27886376585164       -1.56582841667789
H           -3.27942563628051       -0.06218257767079       -1.47527113928977
H           -2.64801529164182        0.67740127585918        0.80535379558169
H           -1.45062969268564       -2.05910880444857        0.10818537671758
H           -3.14681947224716       -1.73208159747664        0.48510682043078
H           -1.90819270104558       -1.52196891863133        1.73548257308012
H           -0.46925066578344        1.64789359401716        0.31301729099016
H           -0.37570294859407        0.49105620866779        1.66857200474528
H            2.24252990292676       -1.63952421034261       -0.97879151115984
H            3.61751230006274       -0.70040769353183       -0.30622877478763
H            2.76143524620575       -0.13188903115031       -1.75112035824039
