23
 xtb: 6.7.1 (edcfbbe)
C           -3.65571042521870       -0.70820997322464        0.09146606542118
C           -3.10268409179810        0.10040707265863        1.08249917821844
C           -1.85928156519975        0.69752052127646        0.88920881038353
C           -1.18759093653091        0.47257757519802       -0.30522169876222
C           -1.72012446519149       -0.33092899632943       -1.30480887673379
C           -2.96447258018773       -0.92212270499725       -1.09937967858799
O            0.02919234315112        1.12451617169027       -0.53432696829946
C            1.19363799302545        0.47820876386074       -0.14856059039841
C            1.21145378639412       -0.77903364110247        0.45117781515687
C            2.43926423288595       -1.33960295666390        0.80211786605764
C            3.63041880966755       -0.66205277701210        0.56111475576496
C            3.59152081697298        0.59570029835021       -0.04137850612110
C            2.37836810646710        1.17096151755027       -0.39812117738050
H           -4.62592869973999       -1.16884502181349        0.24585808293891
H           -3.64035083454787        0.27097526510016        2.00967405769968
H           -1.41147454462981        1.33040917156769        1.64849024997268
H           -1.16536953727121       -0.48481622624698       -2.22462408691996
H           -3.39407792273133       -1.54874972429808       -1.87438463182438
H            0.28940435985206       -1.31557956585263        0.64376857223649
H            2.45504286699417       -2.31905318903271        1.27003391712548
H            4.57996963025795       -1.10740461646289        0.83818571567376
H            4.51261765199680        1.13608944480324       -0.23622219842608
H            2.33500724589325        2.14854796702729       -0.86698158543056
