  15
 
 C          2.1510000000       -3.7350000000        0.9780000000
 C          2.3690000000       -2.2470000000        1.2480000000
 C          2.8720000000       -2.0290000000        2.6750000000
 C          1.0890000000       -1.4840000000        1.0240000000
 C          0.9540000000       -0.5000000000        0.1260000000
 H          1.7900000000       -3.8940000000       -0.0440000000
 H          1.4040000000       -4.1540000000        1.6630000000
 H          3.0780000000       -4.3080000000        1.1000000000
 H          3.1430000000       -1.8880000000        0.5580000000
 H          3.0340000000       -0.9660000000        2.8880000000
 H          2.1470000000       -2.4090000000        3.4030000000
 H          3.8190000000       -2.5540000000        2.8420000000
 H          0.2280000000       -1.7530000000        1.6310000000
 H          0.0140000000        0.0240000000       -0.0040000000
 H          1.7920000000       -0.2060000000       -0.4960000000
