  14
 
 C         -1.8910000000        1.8640000000       -3.7230000000
 C         -2.5900000000        0.8100000000       -2.8900000000
 O         -1.9190000000        0.6900000000       -1.6320000000
 C         -2.4440000000       -0.2300000000       -0.7730000000
 O         -3.4150000000       -0.9440000000       -0.9800000000
 C         -1.6440000000       -0.2460000000        0.4940000000
 H         -2.3810000000        1.9810000000       -4.6940000000
 H         -1.8950000000        2.8290000000       -3.2060000000
 H         -0.8430000000        1.5950000000       -3.8860000000
 H         -2.5640000000       -0.1590000000       -3.3970000000
 H         -3.6310000000        1.0920000000       -2.7080000000
 H         -2.0610000000        0.4720000000        1.2050000000
 H         -0.5990000000       -0.0100000000        0.2770000000
 H         -1.6900000000       -1.2440000000        0.9390000000
