 xtb: 6.7.1 (edcfbbe)
          04112511373D

 21 20  0     0  0            999 V2000
   -3.0100    0.2951   -0.1302 C   0  0  0  0  0  0  0  0  0  0  0  0
   -1.5713    0.6077    0.2673 C   0  0  0  0  0  0  0  0  0  0  0  0
   -0.5943   -0.3422   -0.4248 C   0  0  0  0  0  0  0  0  0  0  0  0
    0.8900   -0.1645   -0.0409 C   0  0  0  0  0  0  0  0  0  0  0  0
    1.3868    1.2526   -0.3449 C   0  0  0  0  0  0  0  0  0  0  0  0
    1.7290   -1.1815   -0.8212 C   0  0  0  0  0  0  0  0  0  0  0  0
    1.0949   -0.4740    1.3358 O   0  0  0  0  0  0  0  0  0  0  0  0
   -3.2719   -0.7221    0.1523 H   0  0  0  0  0  0  0  0  0  0  0  0
   -3.1377    0.3948   -1.2056 H   0  0  0  0  0  0  0  0  0  0  0  0
   -3.6984    0.9771    0.3630 H   0  0  0  0  0  0  0  0  0  0  0  0
   -1.3467    1.6400   -0.0053 H   0  0  0  0  0  0  0  0  0  0  0  0
   -1.4766    0.5103    1.3509 H   0  0  0  0  0  0  0  0  0  0  0  0
   -0.8753   -1.3693   -0.1793 H   0  0  0  0  0  0  0  0  0  0  0  0
   -0.6830   -0.2206   -1.5056 H   0  0  0  0  0  0  0  0  0  0  0  0
    1.2232    1.4897   -1.3919 H   0  0  0  0  0  0  0  0  0  0  0  0
    2.4510    1.3193   -0.1313 H   0  0  0  0  0  0  0  0  0  0  0  0
    0.8686    1.9871    0.2666 H   0  0  0  0  0  0  0  0  0  0  0  0
    1.6431   -1.0052   -1.8886 H   0  0  0  0  0  0  0  0  0  0  0  0
    1.3904   -2.1888   -0.5944 H   0  0  0  0  0  0  0  0  0  0  0  0
    2.7712   -1.0978   -0.5251 H   0  0  0  0  0  0  0  0  0  0  0  0
    0.6873    0.2145    1.8770 H   0  0  0  0  0  0  0  0  0  0  0  0
  1  2  1  0  0  0  0
  2  3  1  0  0  0  0
  3  4  1  0  0  0  0
  4  5  1  0  0  0  0
  4  6  1  0  0  0  0
  4  7  1  0  0  0  0
  1  8  1  0  0  0  0
  1  9  1  0  0  0  0
  1 10  1  0  0  0  0
  2 11  1  0  0  0  0
  2 12  1  0  0  0  0
  3 13  1  0  0  0  0
  3 14  1  0  0  0  0
  5 15  1  0  0  0  0
  5 16  1  0  0  0  0
  5 17  1  0  0  0  0
  6 18  1  0  0  0  0
  6 19  1  0  0  0  0
  6 20  1  0  0  0  0
  7 21  1  0  0  0  0
M  END
