 xtb: 6.7.1 (edcfbbe)
          04112511523D

 18 17  0     0  0            999 V2000
    1.7851   -1.3825    0.1243 C   0  0  0  0  0  0  0  0  0  0  0  0
    0.8167   -0.2092    0.2614 C   0  0  0  0  0  0  0  0  0  0  0  0
    1.5811    1.1080    0.1453 C   0  0  0  0  0  0  0  0  0  0  0  0
   -0.2883   -0.3171   -0.7965 C   0  0  0  0  0  0  0  0  0  0  0  0
   -1.4914    0.5774   -0.5087 C   0  0  0  0  0  0  0  0  0  0  0  0
   -2.1175    0.1390    0.6832 O   0  0  0  0  0  0  0  0  0  0  0  0
    2.2479   -1.3760   -0.8604 H   0  0  0  0  0  0  0  0  0  0  0  0
    1.2648   -2.3283    0.2547 H   0  0  0  0  0  0  0  0  0  0  0  0
    2.5700   -1.3170    0.8739 H   0  0  0  0  0  0  0  0  0  0  0  0
    0.3401   -0.2600    1.2460 H   0  0  0  0  0  0  0  0  0  0  0  0
    2.3579    1.1588    0.9045 H   0  0  0  0  0  0  0  0  0  0  0  0
    0.9215    1.9607    0.2807 H   0  0  0  0  0  0  0  0  0  0  0  0
    2.0508    1.1858   -0.8332 H   0  0  0  0  0  0  0  0  0  0  0  0
   -0.6475   -1.3476   -0.8272 H   0  0  0  0  0  0  0  0  0  0  0  0
    0.1117   -0.0615   -1.7789 H   0  0  0  0  0  0  0  0  0  0  0  0
   -1.1735    1.6226   -0.4070 H   0  0  0  0  0  0  0  0  0  0  0  0
   -2.1966    0.5109   -1.3489 H   0  0  0  0  0  0  0  0  0  0  0  0
   -2.8745    0.7069    0.8757 H   0  0  0  0  0  0  0  0  0  0  0  0
  1  2  1  0  0  0  0
  2  3  1  0  0  0  0
  2  4  1  0  0  0  0
  4  5  1  0  0  0  0
  5  6  1  0  0  0  0
  1  7  1  0  0  0  0
  1  8  1  0  0  0  0
  1  9  1  0  0  0  0
  2 10  1  0  0  0  0
  3 11  1  0  0  0  0
  3 12  1  0  0  0  0
  3 13  1  0  0  0  0
  4 14  1  0  0  0  0
  4 15  1  0  0  0  0
  5 16  1  0  0  0  0
  5 17  1  0  0  0  0
  6 18  1  0  0  0  0
M  END
