  22
 
 C          2.3221143630        0.9487646112       -0.2617087523
 C          1.2758412856        0.1357788664        0.4942105687
 C          1.7892528149       -1.2819199577        0.7736147610
 C          0.0010373176       -0.0007739630       -0.3264839961
 O          0.0044070547       -0.0042636196       -1.5305630976
 C         -1.2777754536       -0.1358562353        0.4880716868
 C         -2.3212903557       -0.9488998228       -0.2716138276
 C         -1.7917460678        1.2821919887        0.7640277529
 H          1.9801348776        1.9713892867       -0.4015752412
 H          2.4905977032        0.5091949371       -1.2412137571
 H          3.2614239256        0.9653965800        0.2853182965
 H          1.0414535128        0.6202069541        1.4472658695
 H          1.0557587248       -1.8624329089        1.3288624883
 H          1.9975217306       -1.7926416897       -0.1638008859
 H          2.7068292920       -1.2368164955        1.3557263170
 H         -1.0477687710       -0.6196566629        1.4425850224
 H         -3.2609163951       -0.9704755013        0.2749410653
 H         -2.4907601166       -0.5059912048       -1.2495739349
 H         -1.9762235575       -1.9700641859       -0.4156194252
 H         -2.7040312142        1.2384130001        1.3545805030
 H         -1.0545690344        1.8675529641        1.3093840983
 H         -2.0092734928        1.7871454317       -0.1744269684
          22
        -26.19219947
 C          1.7892179764        1.3092383156        0.7297419041
 C          1.2784640567       -0.1166033169        0.4905246548
 C          2.3222368514       -0.9477243794       -0.2488349289
 C         -0.0001237726        0.0004339847       -0.3267610783
 O         -0.0004674108       -0.0007811914       -1.5308864981
 C         -1.2784457295        0.1178013258        0.4908096605
 C         -1.7873165810       -1.3085923223        0.7314070406
 C         -2.3235657596        0.9465922082       -0.2491450601
 H          2.0085356136        1.7883109700       -0.2217361039
 H          2.6994948935        1.2843330611        1.3244987844
 H          1.0480298206        1.9072864250        1.2558372214
 H          1.0494489005       -0.5768785334        1.4567796004
 H          1.9786395442       -1.9732287804       -0.3648239678
 H          2.4901209320       -0.5308389567       -1.2385624831
 H          3.2625597092       -0.9534766609        0.2972700730
 H         -1.0498007166        0.5793144783        1.4565314053
 H         -2.6994715952       -1.2843662423        1.3233281096
 H         -2.0026897665       -1.7900733723       -0.2197677604
 H         -1.0465639726       -1.9039859149        1.2610331941
 H         -3.2640032289        0.9508238757        0.2967633105
 H         -1.9819558657        1.9726776625       -0.3656002159
 H         -2.4904902630        0.5288480962       -1.2386679815
