 22

C      2.250000     1.205000     0.301000
C      0.844000     0.985000    -0.250000
C      0.038000     2.279000    -0.228000
C      0.106000    -0.086000     0.549000
O      0.336000    -0.275000     1.744000
C     -0.934000    -0.913000    -0.206000
C     -2.053000    -1.366000     0.727000
C     -0.252000    -2.106000    -0.864000
H      2.836000     0.279000     0.289000
H      2.209000     1.566000     1.334000
H      2.790000     1.947000    -0.296000
H      0.941000     0.634000    -1.284000
H     -0.970000     2.121000    -0.624000
H     -0.068000     2.663000     0.792000
H      0.522000     3.050000    -0.836000
H     -1.379000    -0.276000    -0.979000
H     -2.796000    -1.958000     0.183000
H     -1.655000    -1.984000     1.538000
H     -2.573000    -0.513000     1.176000
H     -0.972000    -2.720000    -1.416000
H      0.522000    -1.776000    -1.565000
H      0.223000    -2.750000    -0.117000
