 xtb: 6.7.1 (edcfbbe)
          04112511193D

 14 13  0     0  0            999 V2000
   -1.0268   -0.4604   -0.2995 C   0  0  0  0  0  0  0  0  0  0  0  0
    0.1365    0.3752    0.2536 C   0  0  0  0  0  0  0  0  0  0  0  0
    1.4679   -0.1154   -0.3536 C   0  0  0  0  0  0  0  0  0  0  0  0
    1.7899   -1.4300    0.0296 O   0  0  0  0  0  0  0  0  0  0  0  0
   -0.0348    1.7581    0.0450 O   0  0  0  0  0  0  0  0  0  0  0  0
   -2.2780   -0.1236    0.2501 O   0  0  0  0  0  0  0  0  0  0  0  0
   -0.7965   -1.5219   -0.1419 H   0  0  0  0  0  0  0  0  0  0  0  0
   -1.1249   -0.2846   -1.3743 H   0  0  0  0  0  0  0  0  0  0  0  0
    0.1787    0.2650    1.3445 H   0  0  0  0  0  0  0  0  0  0  0  0
    2.2602    0.5888   -0.0721 H   0  0  0  0  0  0  0  0  0  0  0  0
    1.3897   -0.1345   -1.4439 H   0  0  0  0  0  0  0  0  0  0  0  0
    2.0233   -1.4456    0.9684 H   0  0  0  0  0  0  0  0  0  0  0  0
   -0.2599    1.9220   -0.8814 H   0  0  0  0  0  0  0  0  0  0  0  0
   -2.2538   -0.2460    1.2090 H   0  0  0  0  0  0  0  0  0  0  0  0
  1  2  1  0  0  0  0
  2  3  1  0  0  0  0
  3  4  1  0  0  0  0
  2  5  1  0  0  0  0
  1  6  1  0  0  0  0
  1  7  1  0  0  0  0
  1  8  1  0  0  0  0
  2  9  1  0  0  0  0
  3 10  1  0  0  0  0
  3 11  1  0  0  0  0
  4 12  1  0  0  0  0
  5 13  1  0  0  0  0
  6 14  1  0  0  0  0
M  END
