 xtb: 6.7.1 (edcfbbe)
          04112512443D

 19 18  0     0  0            999 V2000
    1.4419   -0.8673    0.8160 C   0  0  0  0  0  0  0  0  0  0  0  0
    1.0507   -0.2754   -0.5359 C   0  0  0  0  0  0  0  0  0  0  0  0
    2.2813    0.2719   -1.2550 C   0  0  0  0  0  0  0  0  0  0  0  0
    0.0162    0.8469   -0.3469 C   0  0  0  0  0  0  0  0  0  0  0  0
   -1.2756    0.3678    0.2644 C   0  0  0  0  0  0  0  0  0  0  0  0
   -1.6903    0.8112    1.3192 O   0  0  0  0  0  0  0  0  0  0  0  0
   -2.0211   -0.6851   -0.5032 C   0  0  0  0  0  0  0  0  0  0  0  0
    1.9156   -0.1098    1.4368 H   0  0  0  0  0  0  0  0  0  0  0  0
    0.5673   -1.2368    1.3479 H   0  0  0  0  0  0  0  0  0  0  0  0
    2.1403   -1.6900    0.6846 H   0  0  0  0  0  0  0  0  0  0  0  0
    0.6107   -1.0625   -1.1547 H   0  0  0  0  0  0  0  0  0  0  0  0
    3.0196   -0.5148   -1.3876 H   0  0  0  0  0  0  0  0  0  0  0  0
    2.7349    1.0732   -0.6762 H   0  0  0  0  0  0  0  0  0  0  0  0
    2.0147    0.6621   -2.2340 H   0  0  0  0  0  0  0  0  0  0  0  0
   -0.2164    1.2851   -1.3193 H   0  0  0  0  0  0  0  0  0  0  0  0
    0.4350    1.6250    0.2948 H   0  0  0  0  0  0  0  0  0  0  0  0
   -3.0557   -0.7215   -0.1727 H   0  0  0  0  0  0  0  0  0  0  0  0
   -1.9673   -0.4999   -1.5710 H   0  0  0  0  0  0  0  0  0  0  0  0
   -1.5637   -1.6515   -0.2989 H   0  0  0  0  0  0  0  0  0  0  0  0
  1  2  1  0  0  0  0
  2  3  1  0  0  0  0
  2  4  1  0  0  0  0
  4  5  1  0  0  0  0
  5  6  2  0  0  0  0
  5  7  1  0  0  0  0
  1  8  1  0  0  0  0
  1  9  1  0  0  0  0
  1 10  1  0  0  0  0
  2 11  1  0  0  0  0
  3 12  1  0  0  0  0
  3 13  1  0  0  0  0
  3 14  1  0  0  0  0
  4 15  1  0  0  0  0
  4 16  1  0  0  0  0
  7 17  1  0  0  0  0
  7 18  1  0  0  0  0
  7 19  1  0  0  0  0
M  END
