16
 xtb: 6.7.1 (edcfbbe)
C            2.36161485261662        0.30106080438075        0.12382297467120
C            0.89804455101226        0.70720226492225        0.08130828612507
C           -0.05738634764894       -0.43407081171558       -0.12909380916662
O            0.32568316606935       -1.60180337135073       -0.12369292250013
C           -1.50698859697532       -0.10613458933506       -0.38953650464719
C           -2.07171298666409        1.08748436079198        0.37976700751303
H            2.99292139277825        1.18069059886016        0.27653614587724
H            2.55507982685163       -0.40095286534895        0.93957390430535
H            2.66512589922148       -0.17776741253561       -0.81188786571220
H            0.59956188933618        1.20313945392442        1.01594819020247
H            0.70527121309476        1.45164047130331       -0.70267935776386
H           -2.09279742810299       -1.01140275450124       -0.20434142058308
H           -1.56744898947571        0.09463233369805       -1.46981767348863
H           -1.57026755891507        2.02101476422563        0.11182223573904
H           -1.97562367504818        0.94189991802693        1.45992202884730
H           -3.13429794942420        1.20314988157635        0.14922309681409
