 xtb: 6.7.1 (edcfbbe)
          04112510483D

 27 27  0     0  0            999 V2000
   -2.8352   -2.2220    1.3394 C   0  0  0  0  0  0  0  0  0  0  0  0
   -3.3732   -0.8766    0.8667 C   0  0  0  0  0  0  0  0  0  0  0  0
   -2.7715   -0.3247   -0.4353 C   0  0  0  0  0  0  0  0  0  0  0  0
   -3.3986    0.5258   -0.7291 H   0  0  0  0  0  0  0  0  0  0  0  0
   -2.7580   -1.3167   -1.5900 C   0  0  0  0  0  0  0  0  0  0  0  0
   -1.4474    0.2959   -0.2010 N   0  0  0  0  0  0  0  0  0  0  0  0
   -0.2732   -0.4531   -0.1815 C   0  0  0  0  0  0  0  0  0  0  0  0
   -0.2610   -1.6647   -0.2906 O   0  0  0  0  0  0  0  0  0  0  0  0
    0.9433    0.3237   -0.0176 C   0  0  0  0  0  0  0  0  0  0  0  0
    0.9465    1.6649    0.1702 C   0  0  0  0  0  0  0  0  0  0  0  0
   -0.2719    2.2796    0.1932 N   0  0  0  0  0  0  0  0  0  0  0  0
   -1.4783    1.6562    0.0221 C   0  0  0  0  0  0  0  0  0  0  0  0
   -2.5104    2.3046    0.0641 O   0  0  0  0  0  0  0  0  0  0  0  0
    2.1335    2.5343    0.3574 C   0  0  0  0  0  0  0  0  0  0  0  0
    2.5381   -0.7109   -0.0577 Br  0  0  0  0  0  0  0  0  0  0  0  0
   -1.7545   -2.2067    1.4466 H   0  0  0  0  0  0  0  0  0  0  0  0
   -3.2726   -2.4675    2.3040 H   0  0  0  0  0  0  0  0  0  0  0  0
   -3.0939   -3.0087    0.6371 H   0  0  0  0  0  0  0  0  0  0  0  0
   -4.4489   -0.9670    0.7068 H   0  0  0  0  0  0  0  0  0  0  0  0
   -3.2226   -0.1243    1.6455 H   0  0  0  0  0  0  0  0  0  0  0  0
   -2.3809   -0.8368   -2.4905 H   0  0  0  0  0  0  0  0  0  0  0  0
   -2.1390   -2.1802   -1.3722 H   0  0  0  0  0  0  0  0  0  0  0  0
   -3.7774   -1.6443   -1.7707 H   0  0  0  0  0  0  0  0  0  0  0  0
   -0.3195    3.2820    0.3477 H   0  0  0  0  0  0  0  0  0  0  0  0
    2.1631    3.2896   -0.4252 H   0  0  0  0  0  0  0  0  0  0  0  0
    3.0499    1.9538    0.3238 H   0  0  0  0  0  0  0  0  0  0  0  0
    2.0710    3.0434    1.3169 H   0  0  0  0  0  0  0  0  0  0  0  0
  1  2  1  0  0  0  0
  2  3  1  0  0  0  0
  3  4  1  0  0  0  0
  3  5  1  0  0  0  0
  3  6  1  0  0  0  0
  6  7  1  0  0  0  0
  7  8  2  0  0  0  0
  7  9  1  0  0  0  0
  9 10  2  0  0  0  0
 10 11  1  0  0  0  0
  6 12  1  0  0  0  0
 11 12  1  0  0  0  0
 12 13  2  0  0  0  0
 10 14  1  0  0  0  0
  9 15  1  0  0  0  0
  1 16  1  0  0  0  0
  1 17  1  0  0  0  0
  1 18  1  0  0  0  0
  2 19  1  0  0  0  0
  2 20  1  0  0  0  0
  5 21  1  0  0  0  0
  5 22  1  0  0  0  0
  5 23  1  0  0  0  0
 11 24  1  0  0  0  0
 14 25  1  0  0  0  0
 14 26  1  0  0  0  0
 14 27  1  0  0  0  0
M  END
