 xtb: 6.7.1 (edcfbbe)
          04112511063D

 12 11  0     0  0            999 V2000
    0.1520   -0.2899   -0.3640 C   0  0  0  0  0  0  0  0  0  0  0  0
   -0.0507   -0.3571   -1.4408 H   0  0  0  0  0  0  0  0  0  0  0  0
    1.5180    0.3706   -0.1386 C   0  0  0  0  0  0  0  0  0  0  0  0
    2.4910   -0.2997   -0.7595 F   0  0  0  0  0  0  0  0  0  0  0  0
    1.8436    0.4432    1.1493 F   0  0  0  0  0  0  0  0  0  0  0  0
    1.5330    1.6149   -0.6233 F   0  0  0  0  0  0  0  0  0  0  0  0
   -0.7753    0.4795    0.3196 O   0  0  0  0  0  0  0  0  0  0  0  0
   -2.0932    0.1649    0.1071 C   0  0  0  0  0  0  0  0  0  0  0  0
   -2.4521    0.4723   -1.1651 F   0  0  0  0  0  0  0  0  0  0  0  0
   -2.8181    0.9461    0.9088 F   0  0  0  0  0  0  0  0  0  0  0  0
    0.2408   -1.9604    0.2924 Cl  0  0  0  0  0  0  0  0  0  0  0  0
   -2.3470   -0.8920    0.2881 H   0  0  0  0  0  0  0  0  0  0  0  0
  1  2  1  0  0  0  0
  1  3  1  0  0  0  0
  3  4  1  0  0  0  0
  3  5  1  0  0  0  0
  3  6  1  0  0  0  0
  1  7  1  0  0  0  0
  7  8  1  0  0  0  0
  8  9  1  0  0  0  0
  8 10  1  0  0  0  0
  1 11  1  0  0  0  0
  8 12  1  0  0  0  0
M  END
