 xtb: 6.7.1 (edcfbbe)
          04112511413D

 14 13  0     0  0            999 V2000
   -1.3616   -0.4406   -0.3326 C   0  0  0  0  0  0  0  0  0  0  0  0
    0.0064   -0.0583    0.2482 C   0  0  0  0  0  0  0  0  0  0  0  0
    1.1369   -0.8003   -0.4848 C   0  0  0  0  0  0  0  0  0  0  0  0
    2.3884   -0.5381    0.1027 O   0  0  0  0  0  0  0  0  0  0  0  0
    0.2338    1.3355    0.2083 O   0  0  0  0  0  0  0  0  0  0  0  0
   -2.4191    0.3100    0.2117 O   0  0  0  0  0  0  0  0  0  0  0  0
   -1.5248   -1.5157   -0.1872 H   0  0  0  0  0  0  0  0  0  0  0  0
   -1.3786   -0.2295   -1.4054 H   0  0  0  0  0  0  0  0  0  0  0  0
    0.0518   -0.3189    1.3123 H   0  0  0  0  0  0  0  0  0  0  0  0
    1.1460   -0.5018   -1.5429 H   0  0  0  0  0  0  0  0  0  0  0  0
    0.9853   -1.8789   -0.4234 H   0  0  0  0  0  0  0  0  0  0  0  0
    2.4516    0.4181    0.2548 H   0  0  0  0  0  0  0  0  0  0  0  0
   -0.0690    1.6872   -0.6410 H   0  0  0  0  0  0  0  0  0  0  0  0
   -2.4510    0.1803    1.1698 H   0  0  0  0  0  0  0  0  0  0  0  0
  1  2  1  0  0  0  0
  2  3  1  0  0  0  0
  3  4  1  0  0  0  0
  2  5  1  0  0  0  0
  1  6  1  0  0  0  0
  1  7  1  0  0  0  0
  1  8  1  0  0  0  0
  2  9  1  0  0  0  0
  3 10  1  0  0  0  0
  3 11  1  0  0  0  0
  4 12  1  0  0  0  0
  5 13  1  0  0  0  0
  6 14  1  0  0  0  0
M  END
