 xtb: 6.7.1 (edcfbbe)
          04112512343D

 23 22  0     0  0            999 V2000
    2.2313    0.9748    0.8330 C   0  0  0  0  0  0  0  0  0  0  0  0
    1.4361   -0.3126    0.6400 C   0  0  0  0  0  0  0  0  0  0  0  0
    0.3382   -0.1910   -0.4389 C   0  0  0  0  0  0  0  0  0  0  0  0
    0.4872    0.7504   -0.9795 H   0  0  0  0  0  0  0  0  0  0  0  0
    0.4778   -1.3349   -1.4457 C   0  0  0  0  0  0  0  0  0  0  0  0
   -1.0719   -0.1534    0.1839 C   0  0  0  0  0  0  0  0  0  0  0  0
   -1.2378    1.0550    1.1062 C   0  0  0  0  0  0  0  0  0  0  0  0
   -2.1686   -0.1082   -0.8817 C   0  0  0  0  0  0  0  0  0  0  0  0
    2.9856    0.8417    1.6057 H   0  0  0  0  0  0  0  0  0  0  0  0
    2.7350    1.2495   -0.0913 H   0  0  0  0  0  0  0  0  0  0  0  0
    1.5827    1.7964    1.1252 H   0  0  0  0  0  0  0  0  0  0  0  0
    0.9920   -0.6119    1.5910 H   0  0  0  0  0  0  0  0  0  0  0  0
    2.1333   -1.1035    0.3567 H   0  0  0  0  0  0  0  0  0  0  0  0
   -0.1814   -1.1970   -2.2976 H   0  0  0  0  0  0  0  0  0  0  0  0
    1.4984   -1.3774   -1.8200 H   0  0  0  0  0  0  0  0  0  0  0  0
    0.2441   -2.2871   -0.9735 H   0  0  0  0  0  0  0  0  0  0  0  0
   -1.2068   -1.0658    0.7772 H   0  0  0  0  0  0  0  0  0  0  0  0
   -1.0963    1.9769    0.5456 H   0  0  0  0  0  0  0  0  0  0  0  0
   -0.5257    1.0344    1.9257 H   0  0  0  0  0  0  0  0  0  0  0  0
   -2.2388    1.0657    1.5325 H   0  0  0  0  0  0  0  0  0  0  0  0
   -2.2191   -1.0365   -1.4426 H   0  0  0  0  0  0  0  0  0  0  0  0
   -1.9898    0.7111   -1.5749 H   0  0  0  0  0  0  0  0  0  0  0  0
   -3.1364    0.0495   -0.4106 H   0  0  0  0  0  0  0  0  0  0  0  0
  1  2  1  0  0  0  0
  2  3  1  0  0  0  0
  3  4  1  0  0  0  0
  3  5  1  0  0  0  0
  3  6  1  0  0  0  0
  6  7  1  0  0  0  0
  6  8  1  0  0  0  0
  1  9  1  0  0  0  0
  1 10  1  0  0  0  0
  1 11  1  0  0  0  0
  2 12  1  0  0  0  0
  2 13  1  0  0  0  0
  5 14  1  0  0  0  0
  5 15  1  0  0  0  0
  5 16  1  0  0  0  0
  6 17  1  0  0  0  0
  7 18  1  0  0  0  0
  7 19  1  0  0  0  0
  7 20  1  0  0  0  0
  8 21  1  0  0  0  0
  8 22  1  0  0  0  0
  8 23  1  0  0  0  0
M  END
