 xtb: 6.7.1 (edcfbbe)
          04112511323D

 21 20  0     0  0            999 V2000
   -2.5200   -0.0656    0.6445 C   0  0  0  0  0  0  0  0  0  0  0  0
   -1.6331    0.7653   -0.2792 C   0  0  0  0  0  0  0  0  0  0  0  0
   -0.5077   -0.0639   -0.9107 C   0  0  0  0  0  0  0  0  0  0  0  0
    0.8070   -0.1264   -0.0981 C   0  0  0  0  0  0  0  0  0  0  0  0
    1.5658    1.2018   -0.1993 C   0  0  0  0  0  0  0  0  0  0  0  0
    1.6796   -1.2593   -0.6469 C   0  0  0  0  0  0  0  0  0  0  0  0
    0.5667   -0.4469    1.2693 O   0  0  0  0  0  0  0  0  0  0  0  0
   -1.9249   -0.5829    1.3923 H   0  0  0  0  0  0  0  0  0  0  0  0
   -3.0621   -0.8136    0.0698 H   0  0  0  0  0  0  0  0  0  0  0  0
   -3.2454    0.5682    1.1498 H   0  0  0  0  0  0  0  0  0  0  0  0
   -2.2535    1.1801   -1.0764 H   0  0  0  0  0  0  0  0  0  0  0  0
   -1.2171    1.6107    0.2725 H   0  0  0  0  0  0  0  0  0  0  0  0
   -0.8722   -1.0823   -1.0571 H   0  0  0  0  0  0  0  0  0  0  0  0
   -0.2576    0.3428   -1.8914 H   0  0  0  0  0  0  0  0  0  0  0  0
    1.8715    1.3812   -1.2257 H   0  0  0  0  0  0  0  0  0  0  0  0
    2.4535    1.1647    0.4282 H   0  0  0  0  0  0  0  0  0  0  0  0
    0.9448    2.0333    0.1264 H   0  0  0  0  0  0  0  0  0  0  0  0
    1.1879   -2.2131   -0.4745 H   0  0  0  0  0  0  0  0  0  0  0  0
    2.6361   -1.2706   -0.1313 H   0  0  0  0  0  0  0  0  0  0  0  0
    1.8458   -1.1280   -1.7114 H   0  0  0  0  0  0  0  0  0  0  0  0
    0.2097    0.3347    1.7108 H   0  0  0  0  0  0  0  0  0  0  0  0
  1  2  1  0  0  0  0
  2  3  1  0  0  0  0
  3  4  1  0  0  0  0
  4  5  1  0  0  0  0
  4  6  1  0  0  0  0
  4  7  1  0  0  0  0
  1  8  1  0  0  0  0
  1  9  1  0  0  0  0
  1 10  1  0  0  0  0
  2 11  1  0  0  0  0
  2 12  1  0  0  0  0
  3 13  1  0  0  0  0
  3 14  1  0  0  0  0
  5 15  1  0  0  0  0
  5 16  1  0  0  0  0
  5 17  1  0  0  0  0
  6 18  1  0  0  0  0
  6 19  1  0  0  0  0
  6 20  1  0  0  0  0
  7 21  1  0  0  0  0
M  END
