23
 xtb: 6.7.1 (edcfbbe)
C            2.20190604801045        1.00389284571284        0.85228698958449
C            1.44921410773237       -0.30617967928305        0.62684957431788
C            0.34249416009157       -0.21720733561780       -0.45472149766568
H            0.49282164734463        0.71802736679819       -1.01716292991537
C            0.47091098248135       -1.38103150362740       -1.44140706779066
C           -1.07036322440116       -0.14612388352557        0.16781892413956
C           -1.21263030289539        1.04053379193409        1.12453562133953
C           -2.17032608172488       -0.07371133497773       -0.89469437897943
H            2.95771077744161        0.89984008552574        1.63868220381032
H            2.71606868060945        1.31499782898583       -0.06438510214702
H            1.52646666761940        1.81526367433174        1.14163900154678
H            1.01235755061265       -0.65128405225468        1.57296263126303
H            2.17531900701858       -1.07449950064022        0.33486980429806
H           -0.20762013651053       -1.28191324685619       -2.29334971781852
H            1.49054994326240       -1.43534404192293       -1.83763028621199
H            0.25450189622168       -2.33565345862354       -0.94469278005035
H           -1.21306426119615       -1.07128612122899        0.74793251882406
H           -1.06033341575542        1.98685386991214        0.59068426164376
H           -0.49454082385919        0.99709316359564        1.94811838273548
H           -2.21675069405915        1.06262763469424        1.56194209368080
H           -2.22976798577231       -0.98383685949778       -1.49802598496335
H           -1.99699356751871        0.77232756584490       -1.57222542569306
H           -3.14877297464765        0.07263221152687       -0.42386188442794
