21
 xtb: 6.7.1 (edcfbbe)
C            1.79583570351675       -1.09821247173182        0.48303679672671
C            1.27657886353037        0.29043709346829        0.85169699621766
C            0.17499435673736        0.88566737670810       -0.03108955282985
H           -0.06571586240702        1.86993549114333        0.40229584841786
C           -1.16182833420290        0.13383187769332       -0.13710572970981
C           -1.14076356425250       -1.14146618857619       -0.98497855924184
C           -1.73141202786871       -0.14777468279038        1.25292530584425
O            0.65395220831960        1.09277287272780       -1.38270664261624
H            1.99912237975293       -1.18071217807081       -0.58970466124369
H            1.08841139016855       -1.88497527010051        0.75675300442685
H            2.73201075455309       -1.30194018255258        1.01297660291644
H            0.92246402365260        0.29317887660092        1.88955805003907
H            2.11062422561815        1.00507514858785        0.82089099310982
H           -1.84018837973595        0.83832991500690       -0.63948144530412
H           -2.16950254872635       -1.46891460172244       -1.17140060251322
H           -0.66415332795070       -0.98078867527049       -1.95579671237133
H           -0.62406748393682       -1.96194673801948       -0.48123231967285
H           -2.75459022185374       -0.52943117024465        1.17446394330786
H           -1.75618701802657        0.75667658357995        1.87121703842460
H           -1.13523103230667       -0.90250085140929        1.77800955872133
H            1.44292493719306        1.64687380200918       -1.32184756771659
