 xtb: 6.7.1 (edcfbbe)
          04112512013D

 18 17  0     0  0            999 V2000
    1.6368   -1.2128   -0.6278 C   0  0  0  0  0  0  0  0  0  0  0  0
    1.0805   -0.2775    0.4450 C   0  0  0  0  0  0  0  0  0  0  0  0
    1.2778    1.1811    0.0350 C   0  0  0  0  0  0  0  0  0  0  0  0
   -0.3846   -0.6042    0.7770 C   0  0  0  0  0  0  0  0  0  0  0  0
   -1.4083   -0.2851   -0.3204 C   0  0  0  0  0  0  0  0  0  0  0  0
   -1.9907    0.9980   -0.1955 O   0  0  0  0  0  0  0  0  0  0  0  0
    2.6949   -1.0164   -0.7833 H   0  0  0  0  0  0  0  0  0  0  0  0
    1.1244   -1.0717   -1.5762 H   0  0  0  0  0  0  0  0  0  0  0  0
    1.5206   -2.2512   -0.3272 H   0  0  0  0  0  0  0  0  0  0  0  0
    1.6521   -0.4494    1.3647 H   0  0  0  0  0  0  0  0  0  0  0  0
    2.3388    1.3991   -0.0647 H   0  0  0  0  0  0  0  0  0  0  0  0
    0.8654    1.8507    0.7864 H   0  0  0  0  0  0  0  0  0  0  0  0
    0.8086    1.3799   -0.9259 H   0  0  0  0  0  0  0  0  0  0  0  0
   -0.6846   -0.0550    1.6727 H   0  0  0  0  0  0  0  0  0  0  0  0
   -0.4488   -1.6684    1.0087 H   0  0  0  0  0  0  0  0  0  0  0  0
   -0.9644   -0.3997   -1.3167 H   0  0  0  0  0  0  0  0  0  0  0  0
   -2.2532   -0.9740   -0.2474 H   0  0  0  0  0  0  0  0  0  0  0  0
   -1.2937    1.6658   -0.2526 H   0  0  0  0  0  0  0  0  0  0  0  0
  1  2  1  0  0  0  0
  2  3  1  0  0  0  0
  2  4  1  0  0  0  0
  4  5  1  0  0  0  0
  5  6  1  0  0  0  0
  1  7  1  0  0  0  0
  1  8  1  0  0  0  0
  1  9  1  0  0  0  0
  2 10  1  0  0  0  0
  3 11  1  0  0  0  0
  3 12  1  0  0  0  0
  3 13  1  0  0  0  0
  4 14  1  0  0  0  0
  4 15  1  0  0  0  0
  5 16  1  0  0  0  0
  5 17  1  0  0  0  0
  6 18  1  0  0  0  0
M  END
