 xtb: 6.7.1 (edcfbbe)
          04112511443D

 15 14  0     0  0            999 V2000
   -2.1264   -0.8075    0.3755 C   0  0  0  0  0  0  0  0  0  0  0  0
   -1.2399   -0.1928   -0.6902 C   0  0  0  0  0  0  0  0  0  0  0  0
    0.0002    0.9635   -0.0010 S   0  0  0  0  0  0  0  0  0  0  0  0
    1.2398   -0.1914    0.6909 C   0  0  0  0  0  0  0  0  0  0  0  0
    2.1260   -0.8081   -0.3740 C   0  0  0  0  0  0  0  0  0  0  0  0
   -2.8783   -1.4387   -0.0925 H   0  0  0  0  0  0  0  0  0  0  0  0
   -1.5455   -1.4175    1.0638 H   0  0  0  0  0  0  0  0  0  0  0  0
   -2.6261   -0.0264    0.9434 H   0  0  0  0  0  0  0  0  0  0  0  0
   -1.8233    0.4202   -1.3757 H   0  0  0  0  0  0  0  0  0  0  0  0
   -0.7029   -0.9493   -1.2600 H   0  0  0  0  0  0  0  0  0  0  0  0
    1.8229    0.4233    1.3752 H   0  0  0  0  0  0  0  0  0  0  0  0
    0.7026   -0.9468    1.2621 H   0  0  0  0  0  0  0  0  0  0  0  0
    2.6260   -0.0284   -0.9434 H   0  0  0  0  0  0  0  0  0  0  0  0
    2.8774   -1.4385    0.0955 H   0  0  0  0  0  0  0  0  0  0  0  0
    1.5451   -1.4192   -1.0613 H   0  0  0  0  0  0  0  0  0  0  0  0
  1  2  1  0  0  0  0
  2  3  1  0  0  0  0
  3  4  1  0  0  0  0
  4  5  1  0  0  0  0
  1  6  1  0  0  0  0
  1  7  1  0  0  0  0
  1  8  1  0  0  0  0
  2  9  1  0  0  0  0
  2 10  1  0  0  0  0
  4 11  1  0  0  0  0
  4 12  1  0  0  0  0
  5 13  1  0  0  0  0
  5 14  1  0  0  0  0
  5 15  1  0  0  0  0
M  END
