21
CONF2
C -3.7591754040 0.8556682322 -1.2427715661
C -3.0559610827 0.1771107100 -0.0957932959
O -1.6198608137 0.2719323325 -0.3569041927
C -0.8100125156 -0.2852151597 0.5566536027
O -1.2218146589 -0.8482992972 1.5616212835
C 0.6260646131 -0.1453240698 0.2129915130
C 1.0505059736 0.5064914665 -0.9509872867
C 2.4079434326 0.6113421464 -1.2294167913
C 3.3467322419 0.0698659936 -0.3536467597
C 2.9269364033 -0.5795674720 0.8059693470
C 1.5718796555 -0.6878228065 1.0898493238
H -4.8392713084 0.8040371360 -1.0778744155
H -3.4723422415 1.9087549155 -1.3126385081
H -3.5323523540 0.3605797812 -2.1912421774
H -3.3215417112 -0.8814786926 -0.0188015547
H -3.2631204007 0.6655593523 0.8611031404
H 0.3243994441 0.9290257914 -1.6349776711
H 2.7343807667 1.1170670283 -2.1322048582
H 4.4059300613 0.1538497024 -0.5749729561
H 3.6571733375 -1.0016853729 1.4884426220
H 1.2376327273 -1.1920275302 1.9898330545
21
CONF4
C -3.8256464571 -1.2101604988 -0.4890148307
C -3.0533288019 -0.0075805561 -0.0105887528
O -1.6320808571 -0.3340455001 -0.1269218766
C -0.7704263109 0.6367807177 0.2136722567
O -1.1255050484 1.7438790281 0.5958049742
C 0.6475486570 0.2249254757 0.0718747285
C 1.6403900209 1.1798264857 0.3186690397
C 2.9809091088 0.8371641719 0.2001024547
C 3.3394271231 -0.4603599853 -0.1615258042
C 2.3538729684 -1.4145815994 -0.4062478479
C 1.0104963770 -1.0771330778 -0.2927048581
H -3.5973069295 -1.4325179360 -1.5354014018
H -3.6022440946 -2.0909116222 0.1199630115
H -4.8959746050 -0.9990911284 -0.4083044121
H -3.2645775287 0.2278061437 1.0371250109
H -3.2536339164 0.8780431653 -0.6208660365
H 1.3533048898 2.1871740564 0.5997641607
H 3.7473717763 1.5816054922 0.3894096679
H 4.3873132873 -0.7278786892 -0.2527031411
H 2.6329542581 -2.4251348334 -0.6859607408
H 0.2479763982 -1.8231173057 -0.4824814576
21
CONF1
C -3.6589779043 -0.3618956932 -0.8986217484
C -3.0412030976 -0.4332545802 0.4788056682
O -1.5948414599 -0.6369184580 0.3898935996
C -0.8369106573 0.4534964469 0.1852562096
O -1.2881050523 1.5878111333 0.1134772381
C 0.6069895260 0.1319763757 0.0697613049
C 1.5079488663 1.1916678347 -0.0838021623
C 2.8684289238 0.9381304784 -0.1988905221
C 3.3386611965 -0.3735631943 -0.1641111543
C 2.4447613548 -1.4318076860 -0.0129379829
C 1.0821392190 -1.1844653874 0.1049781732
H -3.4429371592 -1.2704741081 -1.4679383897
H -4.7449269348 -0.2713034222 -0.7957413838
H -3.2934592904 0.5041793893 -1.4565508800
H -3.3933059324 -1.3064491502 1.0308934999
H -3.2343067468 0.4675566104 1.0662419371
H 1.1341901725 2.2092753167 -0.1107968866
H 3.5633879200 1.7631388344 -0.3163084097
H 4.4020584010 -0.5709470103 -0.2552903507
H 2.8103691862 -2.4531266027 0.0131015577
H 0.3911668921 -2.0106983416 0.2214883822
