17
 xtb: 6.7.1 (edcfbbe)
C           -2.27696505610018        1.26210241716813        0.27894677741141
C           -1.87380888350342       -0.08177055642576       -0.31116049162965
C           -0.44425705491570       -0.50987824587168       -0.11825243737702
O           -0.01342496349830       -1.59043812168038       -0.49457113384765
O            0.30752460679780        0.41007599262517        0.50693542786349
C            1.72561935792431        0.09782226160794        0.69802712055319
C            2.51901055351682        0.44156716895258       -0.54103149160198
H           -1.70313287433432        2.08171921384890       -0.16133294728892
H           -3.33608300092716        1.44617712457289        0.07817173109938
H           -2.13030502831336        1.28332941197378        1.36216170647821
H           -2.04393374510247       -0.09982058187834       -1.39487721891774
H           -2.48768238786189       -0.89291175746661        0.09742231113822
H            2.01840012079176        0.71884899880534        1.54667017836219
H            1.82083287541277       -0.95570222170939        0.97151009683122
H            2.39830708519633        1.49790623916523       -0.79804739945488
H            3.58013098962194        0.25447286692758       -0.34833250327093
H            2.21177048969944       -0.16995623759715       -1.39365488253166
