 xtb: 6.7.1 (edcfbbe)
          04112511393D

 22 22  0     0  0            999 V2000
   -4.2011    1.4517    0.1882 C   0  0  0  0  0  0  0  0  0  0  0  0
   -3.4792    0.1292    0.0168 C   0  0  0  0  0  0  0  0  0  0  0  0
   -2.0669    0.3810    0.0475 O   0  0  0  0  0  0  0  0  0  0  0  0
   -1.2591   -0.6708   -0.0860 C   0  0  0  0  0  0  0  0  0  0  0  0
   -1.6854   -1.8064   -0.2296 O   0  0  0  0  0  0  0  0  0  0  0  0
    0.1673   -0.3209   -0.0419 C   0  0  0  0  0  0  0  0  0  0  0  0
    0.5972    0.9959    0.1229 C   0  0  0  0  0  0  0  0  0  0  0  0
    1.9437    1.2874    0.1604 C   0  0  0  0  0  0  0  0  0  0  0  0
    2.8879    0.2678    0.0340 C   0  0  0  0  0  0  0  0  0  0  0  0
    2.4593   -1.0519   -0.1315 C   0  0  0  0  0  0  0  0  0  0  0  0
    1.1151   -1.3394   -0.1686 C   0  0  0  0  0  0  0  0  0  0  0  0
    4.2133    0.5011    0.0649 O   0  0  0  0  0  0  0  0  0  0  0  0
   -5.2722    1.2806    0.1654 H   0  0  0  0  0  0  0  0  0  0  0  0
   -3.9297    1.9030    1.1378 H   0  0  0  0  0  0  0  0  0  0  0  0
   -3.9288    2.1304   -0.6145 H   0  0  0  0  0  0  0  0  0  0  0  0
   -3.7253   -0.3486   -0.9378 H   0  0  0  0  0  0  0  0  0  0  0  0
   -3.7231   -0.5752    0.8195 H   0  0  0  0  0  0  0  0  0  0  0  0
   -0.1337    1.7821    0.2204 H   0  0  0  0  0  0  0  0  0  0  0  0
    2.2678    2.3092    0.2881 H   0  0  0  0  0  0  0  0  0  0  0  0
    3.2015   -1.8276   -0.2278 H   0  0  0  0  0  0  0  0  0  0  0  0
    0.7669   -2.3530   -0.2957 H   0  0  0  0  0  0  0  0  0  0  0  0
    4.4049    1.4455    0.1838 H   0  0  0  0  0  0  0  0  0  0  0  0
  1  2  1  0  0  0  0
  2  3  1  0  0  0  0
  3  4  1  0  0  0  0
  4  5  2  0  0  0  0
  4  6  1  0  0  0  0
  6  7  4  0  0  0  0
  7  8  4  0  0  0  0
  8  9  4  0  0  0  0
  9 10  4  0  0  0  0
  6 11  4  0  0  0  0
 10 11  4  0  0  0  0
  9 12  1  0  0  0  0
  1 13  1  0  0  0  0
  1 14  1  0  0  0  0
  1 15  1  0  0  0  0
  2 16  1  0  0  0  0
  2 17  1  0  0  0  0
  7 18  1  0  0  0  0
  8 19  1  0  0  0  0
 10 20  1  0  0  0  0
 11 21  1  0  0  0  0
 12 22  1  0  0  0  0
M  END
