 xtb: 6.7.1 (edcfbbe)
          04112512403D

 18 17  0     0  0            999 V2000
   -2.5174    0.6184    0.1523 C   0  0  0  0  0  0  0  0  0  0  0  0
   -1.1675    0.7310   -0.5470 C   0  0  0  0  0  0  0  0  0  0  0  0
   -0.0380    0.0231    0.2074 C   0  0  0  0  0  0  0  0  0  0  0  0
    0.0141    0.4157    1.2285 H   0  0  0  0  0  0  0  0  0  0  0  0
   -0.2448   -1.4882    0.2764 C   0  0  0  0  0  0  0  0  0  0  0  0
    1.3065    0.3287   -0.4615 C   0  0  0  0  0  0  0  0  0  0  0  0
    2.3536   -0.1574    0.3550 O   0  0  0  0  0  0  0  0  0  0  0  0
   -3.2611    1.2112   -0.3745 H   0  0  0  0  0  0  0  0  0  0  0  0
   -2.8599   -0.4120    0.1764 H   0  0  0  0  0  0  0  0  0  0  0  0
   -2.4469    0.9838    1.1742 H   0  0  0  0  0  0  0  0  0  0  0  0
   -0.9111    1.7884   -0.6485 H   0  0  0  0  0  0  0  0  0  0  0  0
   -1.2421    0.3111   -1.5526 H   0  0  0  0  0  0  0  0  0  0  0  0
   -0.3970   -1.8951   -0.7212 H   0  0  0  0  0  0  0  0  0  0  0  0
   -1.1040   -1.7355    0.8924 H   0  0  0  0  0  0  0  0  0  0  0  0
    0.6361   -1.9528    0.7124 H   0  0  0  0  0  0  0  0  0  0  0  0
    1.4099    1.4146   -0.5971 H   0  0  0  0  0  0  0  0  0  0  0  0
    1.3385   -0.1499   -1.4499 H   0  0  0  0  0  0  0  0  0  0  0  0
    3.2005    0.0100   -0.0783 H   0  0  0  0  0  0  0  0  0  0  0  0
  1  2  1  0  0  0  0
  2  3  1  0  0  0  0
  3  4  1  0  0  0  0
  3  5  1  0  0  0  0
  3  6  1  0  0  0  0
  6  7  1  0  0  0  0
  1  8  1  0  0  0  0
  1  9  1  0  0  0  0
  1 10  1  0  0  0  0
  2 11  1  0  0  0  0
  2 12  1  0  0  0  0
  5 13  1  0  0  0  0
  5 14  1  0  0  0  0
  5 15  1  0  0  0  0
  6 16  1  0  0  0  0
  6 17  1  0  0  0  0
  7 18  1  0  0  0  0
M  END
