17
 xtb: 6.7.1 (edcfbbe)
C           -2.68245421492982       -0.06636007520517        0.74479785417247
C           -1.73836425414793        0.78864671501962       -0.11029561483325
C           -0.50299730251448        0.00664977934618       -0.45260048298697
O           -0.48238127688012       -0.94511159579294       -1.21873784349808
O            0.58547273938751        0.44391069396928        0.20449642645080
C            1.82794486244935       -0.29364088815133       -0.03259021490072
C            2.89961355162054        0.35912420457074        0.80219485275529
H           -3.59230347855673        0.49659924513132        0.96792536834771
H           -2.96499974594518       -0.98141700269337        0.21703653056665
H           -2.20858016438219       -0.34260415274377        1.69147122333521
H           -1.46700244523793        1.70694587560013        0.41450761736728
H           -2.22835833959813        1.05413383479799       -1.05249779880502
H            1.66568903447801       -1.33771205270341        0.25129115523471
H            2.05545168627384       -0.24755251012624       -1.10171162416861
H            3.04477706527966        1.40335881763590        0.51104785958189
H            2.64976544824851        0.31742621644176        1.86623574786140
H            3.84284394429814       -0.17395317453180        0.65020747009254
