23
 xtb: 6.7.1 (edcfbbe)
C            2.52669089391939        0.17535154578081        0.62920936169764
C            1.18468272180159        0.85644425205189        0.36778259909781
C           -0.00002879116340       -0.06633635546113        0.00001702202692
C            0.37076480001421       -0.95233315434510       -1.19537217480932
C           -0.37134242707737       -0.95182732180370        1.19561949092165
C           -1.18417430536190        0.85708495880353       -0.36795880397723
C           -2.52657159416834        0.17674129728167       -0.62932558939682
H            2.46362486695676       -0.56846605128616        1.43021981220993
H            3.27337338918301        0.91708712524610        0.93215223432111
H            2.91030892518026       -0.32547159506127       -0.26518844536838
H            0.89751287102752        1.43667392948590        1.25561235705303
H            1.31342874377768        1.58354769564842       -0.44631837084440
H            0.71614423971595       -0.34705691372348       -2.04250563170491
H           -0.48580126296284       -1.54633614675137       -1.52997687680245
H            1.16844664153512       -1.65519512863425       -0.93398274235416
H           -1.16945088201695       -1.65427142611901        0.93440983013561
H            0.48487608377816       -1.54626187951938        1.53034814742551
H           -0.71634529145206       -0.34614505539229        2.04261659112690
H           -1.31251175416427        1.58440645768228        0.44601209133659
H           -0.89662246179846        1.43698907428558       -1.25587774683470
H           -2.46392109572551       -0.56719150792402       -1.43026071982663
H           -2.91048658365044       -0.32377730542717        0.26511569310718
H           -3.27282286592319        0.91887559094709       -0.93235291657115
