21
 xtb: 6.7.1 (edcfbbe)
C            2.32170243762944       -0.85028943454104       -0.54295635329507
C            1.25175634401570       -0.11870739214683        0.24573825283417
C            1.55431039117893        1.36920356752443        0.36527000399267
O            0.00466762068002       -0.35382789500166       -0.44225560053672
C           -1.18242170828160        0.00540073702997        0.30842729715379
C           -1.89933577490163        1.14332818277220       -0.40054317442555
C           -2.05557393916862       -1.23280471828219        0.43173810302829
H            3.29511477223559       -0.72696943689843       -0.05925460451078
H            2.09917779670980       -1.91974703664158       -0.60546980259408
H            2.38991537632193       -0.44603159117725       -1.55886513497506
H            1.17867036533986       -0.55798549396302        1.25362205126133
H            1.63498311073156        1.82065098791049       -0.62983513117548
H            2.50439254167261        1.51498768097910        0.88984232090265
H            0.77817635829184        1.89641543698109        0.92797315851665
H           -0.87795666416947        0.33250851577676        1.31161646482740
H           -1.25094522772749        2.01936332946533       -0.49388844317158
H           -2.20657155938692        0.82998078469044       -1.40446714443605
H           -2.79611100805188        1.43487403201942        0.15613365931871
H           -1.51869130372780       -2.03674976035006        0.94466682036736
H           -2.35251027225167       -1.58835304399927       -0.56113078629299
H           -2.96349424152303       -1.00624852915414        1.00011689273750
