29
 xtb: 6.7.1 (edcfbbe)
C           -2.64298726567025       -0.72368892986998        1.05052935568005
C           -2.22220530578175        0.17045718232575       -0.11710443478662
C           -3.14694005741968       -0.05910483209301       -1.31352065615845
C           -0.75910930792774       -0.06081652399987       -0.52848760060931
C            0.26005147531506        0.34655552475500        0.53486109698686
C            1.74896179577999        0.14687349116417        0.17263446979065
C            2.06424214385108       -1.34013551789729       -0.02995163491396
C            2.11861380740965        0.92502903349583       -1.09587379955453
C            2.59276794804204        0.67578244516139        1.33949706401679
H           -2.05949494480503       -0.52840634741950        1.95516926108619
H           -2.51332330349989       -1.78098895036868        0.78682195395040
H           -3.69873964299862       -0.56866534181362        1.29918983479484
H           -2.32351472912655        1.21985307811982        0.19744540054627
H           -2.88939175241619        0.60091328215283       -2.14926019698063
H           -3.06794240411573       -1.09492629105336       -1.66678747869751
H           -4.19403573849980        0.12416130425711       -1.04803960051875
H           -0.63940339392202       -1.12250076506339       -0.78609109170490
H           -0.57065650671201        0.50818543500594       -1.44769108917276
H            0.06989087402448       -0.21034112998701        1.46162686875981
H            0.10846114639243        1.40953984315060        0.77369638304905
H            1.52005046757267       -1.75818331666408       -0.88304534482890
H            3.13491639791560       -1.48166094322105       -0.21851137696455
H            1.79895194396739       -1.92221920210762        0.86080932576904
H            3.19845865939394        0.86853908791234       -1.27618884918540
H            1.61469625095451        0.52383886288293       -1.98112233460837
H            1.84768171839483        1.98340749846579       -1.00065052476201
H            3.66214174178585        0.54121946403703        1.13974676700700
H            2.35307535706762        0.14648045433380        2.26924526914720
H            2.41058881127865        1.74464362912273        1.50163920853626
