 xtb: 6.7.1 (edcfbbe)
          04112511493D

 17 16  0     0  0            999 V2000
   -3.1835    0.5746    0.0264 C   0  0  0  0  0  0  0  0  0  0  0  0
   -1.7825    0.2964   -0.5021 C   0  0  0  0  0  0  0  0  0  0  0  0
   -0.8127   -0.0319    0.6409 C   0  0  0  0  0  0  0  0  0  0  0  0
    0.5410   -0.3815    0.0839 C   0  0  0  0  0  0  0  0  0  0  0  0
    0.7746   -1.3515   -0.6075 O   0  0  0  0  0  0  0  0  0  0  0  0
    1.4538    0.5191    0.4253 O   0  0  0  0  0  0  0  0  0  0  0  0
    2.8008    0.3605   -0.0329 C   0  0  0  0  0  0  0  0  0  0  0  0
   -3.5728   -0.2945    0.5504 H   0  0  0  0  0  0  0  0  0  0  0  0
   -3.1702    1.4160    0.7142 H   0  0  0  0  0  0  0  0  0  0  0  0
   -3.8537    0.8105   -0.7956 H   0  0  0  0  0  0  0  0  0  0  0  0
   -1.4142    1.1689   -1.0453 H   0  0  0  0  0  0  0  0  0  0  0  0
   -1.8036   -0.5464   -1.1958 H   0  0  0  0  0  0  0  0  0  0  0  0
   -1.1886   -0.8966    1.1895 H   0  0  0  0  0  0  0  0  0  0  0  0
   -0.7105    0.8174    1.3149 H   0  0  0  0  0  0  0  0  0  0  0  0
    3.0472    1.2243   -0.6474 H   0  0  0  0  0  0  0  0  0  0  0  0
    2.8878   -0.5588   -0.6129 H   0  0  0  0  0  0  0  0  0  0  0  0
    3.4439    0.3232    0.8441 H   0  0  0  0  0  0  0  0  0  0  0  0
  1  2  1  0  0  0  0
  2  3  1  0  0  0  0
  3  4  1  0  0  0  0
  4  5  2  0  0  0  0
  4  6  1  0  0  0  0
  6  7  1  0  0  0  0
  1  8  1  0  0  0  0
  1  9  1  0  0  0  0
  1 10  1  0  0  0  0
  2 11  1  0  0  0  0
  2 12  1  0  0  0  0
  3 13  1  0  0  0  0
  3 14  1  0  0  0  0
  7 15  1  0  0  0  0
  7 16  1  0  0  0  0
  7 17  1  0  0  0  0
M  END
