 xtb: 6.7.1 (edcfbbe)
          04112511243D

 18 17  0     0  0            999 V2000
    1.8986   -0.3753    0.8862 C   0  0  0  0  0  0  0  0  0  0  0  0
    1.5161    0.2460   -0.4520 C   0  0  0  0  0  0  0  0  0  0  0  0
    0.2492   -0.3283   -1.0941 C   0  0  0  0  0  0  0  0  0  0  0  0
   -1.0848   -0.0014   -0.3868 C   0  0  0  0  0  0  0  0  0  0  0  0
   -1.8848   -0.0900   -1.1430 H   0  0  0  0  0  0  0  0  0  0  0  0
   -1.4300   -0.9674    0.7439 C   0  0  0  0  0  0  0  0  0  0  0  0
   -1.1091    1.3124    0.1467 O   0  0  0  0  0  0  0  0  0  0  0  0
    2.9058   -0.0692    1.1611 H   0  0  0  0  0  0  0  0  0  0  0  0
    1.8721   -1.4610    0.8305 H   0  0  0  0  0  0  0  0  0  0  0  0
    1.2247   -0.0446    1.6713 H   0  0  0  0  0  0  0  0  0  0  0  0
    1.3987    1.3227   -0.3179 H   0  0  0  0  0  0  0  0  0  0  0  0
    2.3352    0.0883   -1.1582 H   0  0  0  0  0  0  0  0  0  0  0  0
    0.1946    0.0654   -2.1128 H   0  0  0  0  0  0  0  0  0  0  0  0
    0.3362   -1.4129   -1.1672 H   0  0  0  0  0  0  0  0  0  0  0  0
   -2.4039   -0.7061    1.1505 H   0  0  0  0  0  0  0  0  0  0  0  0
   -1.4643   -1.9839    0.3645 H   0  0  0  0  0  0  0  0  0  0  0  0
   -0.7003   -0.9052    1.5427 H   0  0  0  0  0  0  0  0  0  0  0  0
   -1.0002    1.9473   -0.5729 H   0  0  0  0  0  0  0  0  0  0  0  0
  1  2  1  0  0  0  0
  2  3  1  0  0  0  0
  3  4  1  0  0  0  0
  4  5  1  0  0  0  0
  4  6  1  0  0  0  0
  4  7  1  0  0  0  0
  1  8  1  0  0  0  0
  1  9  1  0  0  0  0
  1 10  1  0  0  0  0
  2 11  1  0  0  0  0
  2 12  1  0  0  0  0
  3 13  1  0  0  0  0
  3 14  1  0  0  0  0
  6 15  1  0  0  0  0
  6 16  1  0  0  0  0
  6 17  1  0  0  0  0
  7 18  1  0  0  0  0
M  END
