 xtb: 6.7.1 (edcfbbe)
          04112512083D

 22 22  0     0  0            999 V2000
   -4.0421   -1.0329    0.7447 C   0  0  0  0  0  0  0  0  0  0  0  0
   -3.4475    0.3655    0.6665 C   0  0  0  0  0  0  0  0  0  0  0  0
   -2.0158    0.3253    0.7437 O   0  0  0  0  0  0  0  0  0  0  0  0
   -1.3308    0.1499   -0.3881 C   0  0  0  0  0  0  0  0  0  0  0  0
   -1.8677    0.0513   -1.4797 O   0  0  0  0  0  0  0  0  0  0  0  0
    0.1235    0.1021   -0.1781 C   0  0  0  0  0  0  0  0  0  0  0  0
    0.9571   -0.0492   -1.2865 C   0  0  0  0  0  0  0  0  0  0  0  0
    2.3252   -0.0999   -1.1337 C   0  0  0  0  0  0  0  0  0  0  0  0
    2.8880   -0.0008    0.1390 C   0  0  0  0  0  0  0  0  0  0  0  0
    2.0554    0.1500    1.2513 C   0  0  0  0  0  0  0  0  0  0  0  0
    0.6895    0.2011    1.0951 C   0  0  0  0  0  0  0  0  0  0  0  0
    4.2172   -0.0450    0.3483 O   0  0  0  0  0  0  0  0  0  0  0  0
   -3.7299   -1.6178   -0.1177 H   0  0  0  0  0  0  0  0  0  0  0  0
   -3.7073   -1.5314    1.6503 H   0  0  0  0  0  0  0  0  0  0  0  0
   -5.1249   -0.9635    0.7509 H   0  0  0  0  0  0  0  0  0  0  0  0
   -3.7514    0.9741    1.5191 H   0  0  0  0  0  0  0  0  0  0  0  0
   -3.7346    0.8534   -0.2703 H   0  0  0  0  0  0  0  0  0  0  0  0
    0.5046   -0.1247   -2.2636 H   0  0  0  0  0  0  0  0  0  0  0  0
    2.9596   -0.2166   -1.9994 H   0  0  0  0  0  0  0  0  0  0  0  0
    2.5099    0.2243    2.2259 H   0  0  0  0  0  0  0  0  0  0  0  0
    0.0465    0.3176    1.9522 H   0  0  0  0  0  0  0  0  0  0  0  0
    4.7044   -0.1514   -0.4845 H   0  0  0  0  0  0  0  0  0  0  0  0
  1  2  1  0  0  0  0
  2  3  1  0  0  0  0
  3  4  1  0  0  0  0
  4  5  2  0  0  0  0
  4  6  1  0  0  0  0
  6  7  4  0  0  0  0
  7  8  4  0  0  0  0
  8  9  4  0  0  0  0
  9 10  4  0  0  0  0
  6 11  4  0  0  0  0
 10 11  4  0  0  0  0
  9 12  1  0  0  0  0
  1 13  1  0  0  0  0
  1 14  1  0  0  0  0
  1 15  1  0  0  0  0
  2 16  1  0  0  0  0
  2 17  1  0  0  0  0
  7 18  1  0  0  0  0
  8 19  1  0  0  0  0
 10 20  1  0  0  0  0
 11 21  1  0  0  0  0
 12 22  1  0  0  0  0
M  END
