22
 xtb: 6.7.1 (edcfbbe)
C           -3.29784098835482        0.75844734330707        0.42477000442169
C           -2.24576195531740        1.53304696592764       -0.06381124161187
C           -1.06954119520906        0.92496668057202       -0.48934732794049
C           -0.93122269078125       -0.46431423382034       -0.42910588101574
C           -1.98392775085690       -1.23398347989887        0.06495891342028
C           -3.16479037568002       -0.62560692383909        0.48758667116462
C            0.34060378905338       -1.12771544014771       -0.90344433677871
N            1.52894679495116       -0.52654838446128       -0.30059881540148
C            1.87227713037807       -0.57728247596650        1.03282549824646
C            2.94618753937251        0.26197292303164        1.16970088245798
N            3.26447413170175        0.84239643742817       -0.04350050727607
C            2.37848011223164        0.35246825564036       -0.89624367522804
H           -4.21517337275501        1.23398510750728        0.75732851184297
H           -2.34398547148389        2.61300856525048       -0.11471383990046
H           -0.25031408776223        1.53152290190255       -0.86768897838495
H           -1.87716941928222       -2.31369641566513        0.12178670869863
H           -3.97712573923391       -1.23431853129954        0.87246890453871
H            0.32084704242175       -2.19500319224512       -0.66639557741079
H            0.44668177333877       -1.02691191045272       -1.98851388797365
H            1.33733685273761       -1.19817188615927        1.73594275596250
H            3.51039617679246        0.47446760470937        2.06689520204644
H            2.31101891290486        0.58503995995823       -1.95096083917689
