 xtb: 6.7.1 (edcfbbe)
          04112511083D

 23 22  0     0  0            999 V2000
    1.3938    1.4973    0.8433 C   0  0  0  0  0  0  0  0  0  0  0  0
    1.4348    0.1694    0.0957 C   0  0  0  0  0  0  0  0  0  0  0  0
    0.0849   -0.5360   -0.1469 C   0  0  0  0  0  0  0  0  0  0  0  0
    0.3810   -1.7640   -1.0221 C   0  0  0  0  0  0  0  0  0  0  0  0
   -0.5067   -1.0312    1.1745 C   0  0  0  0  0  0  0  0  0  0  0  0
   -0.9074    0.3605   -0.9220 C   0  0  0  0  0  0  0  0  0  0  0  0
   -1.8361    1.2438   -0.0921 C   0  0  0  0  0  0  0  0  0  0  0  0
    0.9027    1.3941    1.8072 H   0  0  0  0  0  0  0  0  0  0  0  0
    0.8794    2.2582    0.2633 H   0  0  0  0  0  0  0  0  0  0  0  0
    2.4105    1.8429    1.0204 H   0  0  0  0  0  0  0  0  0  0  0  0
    1.9096    0.3382   -0.8746 H   0  0  0  0  0  0  0  0  0  0  0  0
    2.0749   -0.5197    0.6529 H   0  0  0  0  0  0  0  0  0  0  0  0
    1.1407   -2.3904   -0.5596 H   0  0  0  0  0  0  0  0  0  0  0  0
    0.7410   -1.4578   -2.0021 H   0  0  0  0  0  0  0  0  0  0  0  0
   -0.5169   -2.3626   -1.1581 H   0  0  0  0  0  0  0  0  0  0  0  0
   -1.4484   -1.5456    0.9971 H   0  0  0  0  0  0  0  0  0  0  0  0
    0.1792   -1.7316    1.6467 H   0  0  0  0  0  0  0  0  0  0  0  0
   -0.6859   -0.2131    1.8648 H   0  0  0  0  0  0  0  0  0  0  0  0
   -0.3349    0.9903   -1.6071 H   0  0  0  0  0  0  0  0  0  0  0  0
   -1.5397   -0.2854   -1.5364 H   0  0  0  0  0  0  0  0  0  0  0  0
   -2.5240    0.6410    0.4943 H   0  0  0  0  0  0  0  0  0  0  0  0
   -1.2876    1.8934    0.5818 H   0  0  0  0  0  0  0  0  0  0  0  0
   -2.4254    1.8690   -0.7604 H   0  0  0  0  0  0  0  0  0  0  0  0
  1  2  1  0  0  0  0
  2  3  1  0  0  0  0
  3  4  1  0  0  0  0
  3  5  1  0  0  0  0
  3  6  1  0  0  0  0
  6  7  1  0  0  0  0
  1  8  1  0  0  0  0
  1  9  1  0  0  0  0
  1 10  1  0  0  0  0
  2 11  1  0  0  0  0
  2 12  1  0  0  0  0
  4 13  1  0  0  0  0
  4 14  1  0  0  0  0
  4 15  1  0  0  0  0
  5 16  1  0  0  0  0
  5 17  1  0  0  0  0
  5 18  1  0  0  0  0
  6 19  1  0  0  0  0
  6 20  1  0  0  0  0
  7 21  1  0  0  0  0
  7 22  1  0  0  0  0
  7 23  1  0  0  0  0
M  END
