 xtb: 6.7.1 (edcfbbe)
          04112511213D

 14 13  0     0  0            999 V2000
   -3.1173    0.4483   -0.1544 C   0  0  0  0  0  0  0  0  0  0  0  0
   -1.9221   -0.2553    0.4773 C   0  0  0  0  0  0  0  0  0  0  0  0
   -0.6077    0.2044   -0.1559 C   0  0  0  0  0  0  0  0  0  0  0  0
    0.5745   -0.5028    0.4813 C   0  0  0  0  0  0  0  0  0  0  0  0
    2.1197    0.0382   -0.2646 Cl  0  0  0  0  0  0  0  0  0  0  0  0
   -3.0393    1.5248   -0.0229 H   0  0  0  0  0  0  0  0  0  0  0  0
   -3.1652    0.2363   -1.2197 H   0  0  0  0  0  0  0  0  0  0  0  0
   -4.0425    0.1116    0.3054 H   0  0  0  0  0  0  0  0  0  0  0  0
   -2.0260   -1.3343    0.3505 H   0  0  0  0  0  0  0  0  0  0  0  0
   -1.9000   -0.0453    1.5480 H   0  0  0  0  0  0  0  0  0  0  0  0
   -0.6238   -0.0069   -1.2265 H   0  0  0  0  0  0  0  0  0  0  0  0
   -0.4978    1.2828   -0.0286 H   0  0  0  0  0  0  0  0  0  0  0  0
    0.5266   -1.5801    0.3320 H   0  0  0  0  0  0  0  0  0  0  0  0
    0.6543   -0.2756    1.5430 H   0  0  0  0  0  0  0  0  0  0  0  0
  1  2  1  0  0  0  0
  2  3  1  0  0  0  0
  3  4  1  0  0  0  0
  4  5  1  0  0  0  0
  1  6  1  0  0  0  0
  1  7  1  0  0  0  0
  1  8  1  0  0  0  0
  2  9  1  0  0  0  0
  2 10  1  0  0  0  0
  3 11  1  0  0  0  0
  3 12  1  0  0  0  0
  4 13  1  0  0  0  0
  4 14  1  0  0  0  0
M  END
