  6
 
 C          0.6582773188       -0.0000523603        0.0005325651
 C         -0.6581564015       -0.0000950434        0.0004271498
 H          1.2283770477        0.9145250363        0.0004665667
 H          1.2284157630       -0.9146056167       -0.0014733609
 H         -1.2282145058       -0.9146998207        0.0005326313
 H         -1.2283094480        0.9144479618       -0.0014066928
           6
         -6.27126058
 C          0.6581775590        0.0000041103        0.0000293971
 C         -0.6581847863        0.0000040081       -0.0000600159
 H          1.2293707644        0.9139905100       -0.0002756805
 H          1.2292922174       -0.9140420658        0.0001728862
 H         -1.2292529994       -0.9140746540        0.0000095568
 H         -1.2293238549        0.9140294647        0.0004581167
