  6
 
 C          0.2840000000        1.0300000000       -0.1840000000
 C         -0.6400000000        1.9560000000       -0.4470000000
 H          1.3360000000        1.2900000000       -0.1500000000
 H          0.0000000000        0.0000000000        0.0000000000
 H         -1.6920000000        1.6950000000       -0.4810000000
 H         -0.3560000000        2.9860000000       -0.6320000000
