  12
 
 C         -1.6715268980        1.2235236420       -0.0052687647
 C         -0.9428326394       -0.0190141898        0.4991675704
 H         -0.9095660498       -0.0282768815        1.6020574080
 C          0.5158297920        0.0081838539        0.0296895437
 F          1.1532095979        1.0908221444        0.5126924314
 F          1.2063090129       -1.0540402855        0.4476911087
 F          0.6301047411        0.0605228420       -1.2988836255
 O         -1.4815570463       -1.2152902647        0.0037999715
 H         -1.6873194416        1.2227164230       -1.0930008516
 H         -1.1693742899        2.1215916040        0.3433096686
 H         -2.6941585831        1.2270762081        0.3647802880
 H         -2.4290412826       -1.2321526128        0.1766220275
          12
        -27.24410812
 C         -1.6505535675        1.2352295313       -0.0085075675
 C         -0.9403683009       -0.0234810237        0.4850422404
 H         -0.9436580034       -0.0750118880        1.5792111093
 C          0.5306169267        0.0095330041        0.0341778784
 F          1.2380543660       -1.0201780759        0.5070505690
 F          0.6264153540       -0.0399756483       -1.3071621739
 F          1.1591688897        1.1268869781        0.4258033101
 O         -1.5399550111       -1.2055067054        0.0439032150
 H         -2.6949550219        1.1927799029        0.2874806344
 H         -1.5932746403        1.2995375512       -1.0940923739
 H         -1.1935718121        2.1215956285        0.4221224392
 H         -1.5709855088       -1.2144179180       -0.9222095001
