 12

C     -0.776000     0.592000     0.835000
C     -0.237000    -0.177000    -0.362000
H     -0.925000    -0.988000    -0.624000
C      1.138000    -0.750000    -0.093000
F      1.112000    -1.601000     0.955000
F      1.590000    -1.439000    -1.164000
F      2.036000     0.219000     0.183000
O     -0.145000     0.700000    -1.480000
H     -0.102000     1.409000     1.114000
H     -0.913000    -0.063000     1.701000
H     -1.740000     1.051000     0.591000
H     -1.043000     1.025000    -1.652000
