 xtb: 6.7.1 (edcfbbe)
          04072505513D

 15 14  0     0  0            999 V2000
    2.6162   -0.8386   -0.1015 C   0  0  0  0  0  0  0  0  0  0  0  0
    1.9941    0.5515   -0.1718 C   0  0  0  0  0  0  0  0  0  0  0  0
    0.5691    0.6050    0.3831 C   0  0  0  0  0  0  0  0  0  0  0  0
   -0.4178   -0.1607   -0.4830 C   0  0  0  0  0  0  0  0  0  0  0  0
   -2.1243   -0.0795    0.1758 S   0  0  0  0  0  0  0  0  0  0  0  0
    2.5852   -1.2180    0.9174 H   0  0  0  0  0  0  0  0  0  0  0  0
    3.6544   -0.8007   -0.4216 H   0  0  0  0  0  0  0  0  0  0  0  0
    2.0902   -1.5381   -0.7461 H   0  0  0  0  0  0  0  0  0  0  0  0
    1.9902    0.8974   -1.2077 H   0  0  0  0  0  0  0  0  0  0  0  0
    2.6093    1.2432    0.4069 H   0  0  0  0  0  0  0  0  0  0  0  0
    0.2522    1.6491    0.4418 H   0  0  0  0  0  0  0  0  0  0  0  0
    0.5522    0.1941    1.3949 H   0  0  0  0  0  0  0  0  0  0  0  0
   -0.4381    0.2196   -1.5040 H   0  0  0  0  0  0  0  0  0  0  0  0
   -0.1926   -1.2259   -0.5015 H   0  0  0  0  0  0  0  0  0  0  0  0
   -2.2623    1.2371    0.0748 H   0  0  0  0  0  0  0  0  0  0  0  0
  1  2  1  0  0  0  0
  2  3  1  0  0  0  0
  3  4  1  0  0  0  0
  4  5  1  0  0  0  0
  1  6  1  0  0  0  0
  1  7  1  0  0  0  0
  1  8  1  0  0  0  0
  2  9  1  0  0  0  0
  2 10  1  0  0  0  0
  3 11  1  0  0  0  0
  3 12  1  0  0  0  0
  4 13  1  0  0  0  0
  4 14  1  0  0  0  0
  5 15  1  0  0  0  0
M  END
