 xtb: 6.7.1 (edcfbbe)
          04112512273D

 19 18  0     0  0            999 V2000
    1.8018    1.2241    0.1624 C   0  0  0  0  0  0  0  0  0  0  0  0
    1.1543   -0.1578    0.1325 C   0  0  0  0  0  0  0  0  0  0  0  0
    2.1604   -1.1922   -0.3686 C   0  0  0  0  0  0  0  0  0  0  0  0
   -0.1097   -0.1667   -0.7652 C   0  0  0  0  0  0  0  0  0  0  0  0
   -1.3537   -0.0350    0.0762 C   0  0  0  0  0  0  0  0  0  0  0  0
   -1.9811   -1.0144    0.4364 O   0  0  0  0  0  0  0  0  0  0  0  0
   -1.7486    1.3538    0.4797 C   0  0  0  0  0  0  0  0  0  0  0  0
    2.6501    1.2238    0.8426 H   0  0  0  0  0  0  0  0  0  0  0  0
    2.1590    1.4896   -0.8300 H   0  0  0  0  0  0  0  0  0  0  0  0
    1.1029    1.9868    0.4928 H   0  0  0  0  0  0  0  0  0  0  0  0
    0.8583   -0.4374    1.1507 H   0  0  0  0  0  0  0  0  0  0  0  0
    2.4497   -0.9729   -1.3937 H   0  0  0  0  0  0  0  0  0  0  0  0
    1.7341   -2.1919   -0.3328 H   0  0  0  0  0  0  0  0  0  0  0  0
    3.0530   -1.1796    0.2524 H   0  0  0  0  0  0  0  0  0  0  0  0
   -0.1672   -1.1208   -1.2908 H   0  0  0  0  0  0  0  0  0  0  0  0
   -0.0490    0.6408   -1.4923 H   0  0  0  0  0  0  0  0  0  0  0  0
   -2.7121    1.3384    0.9820 H   0  0  0  0  0  0  0  0  0  0  0  0
   -0.9989    1.7471    1.1630 H   0  0  0  0  0  0  0  0  0  0  0  0
   -1.7876    2.0028   -0.3901 H   0  0  0  0  0  0  0  0  0  0  0  0
  1  2  1  0  0  0  0
  2  3  1  0  0  0  0
  2  4  1  0  0  0  0
  4  5  1  0  0  0  0
  5  6  2  0  0  0  0
  5  7  1  0  0  0  0
  1  8  1  0  0  0  0
  1  9  1  0  0  0  0
  1 10  1  0  0  0  0
  2 11  1  0  0  0  0
  3 12  1  0  0  0  0
  3 13  1  0  0  0  0
  3 14  1  0  0  0  0
  4 15  1  0  0  0  0
  4 16  1  0  0  0  0
  7 17  1  0  0  0  0
  7 18  1  0  0  0  0
  7 19  1  0  0  0  0
M  END
