  13
 
 C         -3.4671105148        0.3959451460       -0.0002008157
 C         -2.7005534960        1.5497749801       -0.0000193641
 C         -1.3207797635        1.4555392480        0.0001394227
 C         -0.7190769659        0.2119186354        0.0001220735
 C         -1.4716403524       -0.9603377214       -0.0000841660
 C         -2.8615529209       -0.8437517366       -0.0002411446
 O         -0.9388853762       -2.1968324080       -0.0001382570
 I          1.4067780940        0.0802460503        0.0003919944
 H         -4.5441646798        0.4610785133       -0.0003141368
 H         -3.1693030963        2.5211411053        0.0000220579
 H         -0.7133450073        2.3472631096        0.0003109810
 H         -3.4391124274       -1.7542221890       -0.0004072755
 H          0.0307071053       -2.1443574500       -0.0001493001
          13
        -23.26265039
 C         -3.4747754895        0.3753646373        0.0002463925
 C         -2.7177648514        1.5357231035       -0.0001647787
 C         -1.3373680386        1.4530256312       -0.0003606111
 C         -0.7249892010        0.2143631695       -0.0002028727
 C         -1.4678705850       -0.9638966553        0.0001828975
 C         -2.8588497144       -0.8591347260        0.0004270190
 O         -0.9250416349       -2.1961570698       -0.0004047860
 I          1.4016934158        0.0998198888        0.0000549158
 H         -4.5523533645        0.4317744502        0.0001422921
 H         -3.1949228025        2.5030031630       -0.0005287758
 H         -0.7375091124        2.3499327218       -0.0004596994
 H         -3.4287702900       -1.7744295406        0.0005332006
 H          0.0440460960       -2.1361856221       -0.0017017983
