  13
 
 C          1.8850000000       -1.0360000000       -0.1120000000
 C          2.9210000000       -1.6310000000        0.6080000000
 C          2.8780000000       -1.6520000000        2.0020000000
 C          1.8000000000       -1.0790000000        2.6760000000
 C          0.7640000000       -0.4840000000        1.9550000000
 C          0.8070000000       -0.4630000000        0.5610000000
 O         -0.3080000000        0.0870000000        2.5750000000
 I          1.7840000000       -1.1380000000        4.7640000000
 H          1.9180000000       -1.0200000000       -1.1980000000
 H          3.7600000000       -2.0780000000        0.0830000000
 H          3.6980000000       -2.1200000000        2.5420000000
 H          0.0040000000       -0.0010000000       -0.0070000000
 H         -0.2200000000        0.0060000000        3.5370000000
