  17
 
 C          2.3330000000        0.9030000000        1.0250000000
 C          1.3880000000       -0.0680000000        1.6520000000
 C          0.2270000000       -0.4200000000        0.9730000000
 C         -0.6320000000       -1.3220000000        1.5800000000
 N         -0.4090000000       -1.8820000000        2.7910000000
 C          0.7300000000       -1.5160000000        3.4210000000
 C          1.6520000000       -0.6230000000        2.9000000000
 C          2.8800000000       -0.2800000000        3.6700000000
 H          3.0690000000        0.3690000000        0.4170000000
 H          1.7970000000        1.6140000000        0.3890000000
 H          2.8590000000        1.4840000000        1.7900000000
 H         -0.0080000000       -0.0050000000       -0.0010000000
 H         -1.5510000000       -1.6290000000        1.0920000000
 H          0.8800000000       -1.9810000000        4.3900000000
 H          3.6960000000       -0.9700000000        3.4180000000
 H          3.2140000000        0.7440000000        3.4560000000
 H          2.7020000000       -0.3350000000        4.7530000000
