 xtb: 6.7.1 (edcfbbe)
          04112511053D

 19 19  0     0  0            999 V2000
   -2.7705   -0.9317    0.7872 C   0  0  0  0  0  0  0  0  0  0  0  0
   -2.4077   -0.2543   -0.5424 C   0  0  0  0  0  0  0  0  0  0  0  0
   -1.3974    0.7355   -0.4091 O   0  0  0  0  0  0  0  0  0  0  0  0
   -0.1043    0.3549   -0.1893 C   0  0  0  0  0  0  0  0  0  0  0  0
    0.8145    1.3995   -0.0722 C   0  0  0  0  0  0  0  0  0  0  0  0
    2.1509    1.1333    0.1414 C   0  0  0  0  0  0  0  0  0  0  0  0
    2.5955   -0.1763    0.2417 C   0  0  0  0  0  0  0  0  0  0  0  0
    1.6872   -1.2117    0.1261 C   0  0  0  0  0  0  0  0  0  0  0  0
    0.3418   -0.9576   -0.0867 C   0  0  0  0  0  0  0  0  0  0  0  0
   -2.1453   -0.5301    1.5813 H   0  0  0  0  0  0  0  0  0  0  0  0
   -3.8072   -0.7412    1.0454 H   0  0  0  0  0  0  0  0  0  0  0  0
   -2.6189   -2.0062    0.7418 H   0  0  0  0  0  0  0  0  0  0  0  0
   -3.2573    0.3083   -0.9343 H   0  0  0  0  0  0  0  0  0  0  0  0
   -2.1048   -0.9886   -1.2973 H   0  0  0  0  0  0  0  0  0  0  0  0
    0.4493    2.4112   -0.1550 H   0  0  0  0  0  0  0  0  0  0  0  0
    2.8493    1.9515    0.2298 H   0  0  0  0  0  0  0  0  0  0  0  0
    3.6406   -0.3847    0.4097 H   0  0  0  0  0  0  0  0  0  0  0  0
    2.0215   -2.2354    0.2042 H   0  0  0  0  0  0  0  0  0  0  0  0
   -0.3429   -1.7857   -0.1673 H   0  0  0  0  0  0  0  0  0  0  0  0
  1  2  1  0  0  0  0
  2  3  1  0  0  0  0
  3  4  1  0  0  0  0
  4  5  4  0  0  0  0
  5  6  4  0  0  0  0
  6  7  4  0  0  0  0
  7  8  4  0  0  0  0
  4  9  4  0  0  0  0
  8  9  4  0  0  0  0
  1 10  1  0  0  0  0
  1 11  1  0  0  0  0
  1 12  1  0  0  0  0
  2 13  1  0  0  0  0
  2 14  1  0  0  0  0
  5 15  1  0  0  0  0
  6 16  1  0  0  0  0
  7 17  1  0  0  0  0
  8 18  1  0  0  0  0
  9 19  1  0  0  0  0
M  END
