 8

C     -0.604000     0.435000    -0.075000
H     -1.570000    -0.073000    -0.119000
C      0.541000    -0.540000    -0.040000
F      0.556000    -1.329000    -1.135000
F      0.488000    -1.335000     1.049000
F      1.720000     0.123000    -0.006000
F     -0.481000     1.225000    -1.173000
Br    -0.609000     1.541000     1.521000
