 xtb: 6.7.1 (edcfbbe)
          04112512343D

 23 22  0     0  0            999 V2000
    2.1252    1.3368   -0.0389 C   0  0  0  0  0  0  0  0  0  0  0  0
    1.2542    0.2579    0.5969 C   0  0  0  0  0  0  0  0  0  0  0  0
    0.3507   -0.4602   -0.4248 C   0  0  0  0  0  0  0  0  0  0  0  0
    0.6616   -0.1432   -1.4275 H   0  0  0  0  0  0  0  0  0  0  0  0
    0.5540   -1.9749   -0.3513 C   0  0  0  0  0  0  0  0  0  0  0  0
   -1.1450   -0.0965   -0.3067 C   0  0  0  0  0  0  0  0  0  0  0  0
   -1.7795   -0.5202    1.0171 C   0  0  0  0  0  0  0  0  0  0  0  0
   -1.3733    1.3963   -0.5434 C   0  0  0  0  0  0  0  0  0  0  0  0
    1.5132    2.1036   -0.5072 H   0  0  0  0  0  0  0  0  0  0  0  0
    2.7514    1.8109    0.7140 H   0  0  0  0  0  0  0  0  0  0  0  0
    2.7733    0.9044   -0.7984 H   0  0  0  0  0  0  0  0  0  0  0  0
    0.6522    0.7106    1.3847 H   0  0  0  0  0  0  0  0  0  0  0  0
    1.9065   -0.4744    1.0765 H   0  0  0  0  0  0  0  0  0  0  0  0
   -0.1110   -2.4862   -1.0443 H   0  0  0  0  0  0  0  0  0  0  0  0
    1.5791   -2.2265   -0.6144 H   0  0  0  0  0  0  0  0  0  0  0  0
    0.3609   -2.3463    0.6518 H   0  0  0  0  0  0  0  0  0  0  0  0
   -1.6613   -0.6402   -1.1079 H   0  0  0  0  0  0  0  0  0  0  0  0
   -1.7264   -1.5970    1.1489 H   0  0  0  0  0  0  0  0  0  0  0  0
   -2.8279   -0.2301    1.0301 H   0  0  0  0  0  0  0  0  0  0  0  0
   -1.2886   -0.0441    1.8620 H   0  0  0  0  0  0  0  0  0  0  0  0
   -0.9380    1.7048   -1.4914 H   0  0  0  0  0  0  0  0  0  0  0  0
   -0.9287    1.9892    0.2516 H   0  0  0  0  0  0  0  0  0  0  0  0
   -2.4389    1.6132   -0.5711 H   0  0  0  0  0  0  0  0  0  0  0  0
  1  2  1  0  0  0  0
  2  3  1  0  0  0  0
  3  4  1  0  0  0  0
  3  5  1  0  0  0  0
  3  6  1  0  0  0  0
  6  7  1  0  0  0  0
  6  8  1  0  0  0  0
  1  9  1  0  0  0  0
  1 10  1  0  0  0  0
  1 11  1  0  0  0  0
  2 12  1  0  0  0  0
  2 13  1  0  0  0  0
  5 14  1  0  0  0  0
  5 15  1  0  0  0  0
  5 16  1  0  0  0  0
  6 17  1  0  0  0  0
  7 18  1  0  0  0  0
  7 19  1  0  0  0  0
  7 20  1  0  0  0  0
  8 21  1  0  0  0  0
  8 22  1  0  0  0  0
  8 23  1  0  0  0  0
M  END
