 xtb: 6.7.1 (edcfbbe)
          04112511553D

 13 12  0     0  0            999 V2000
   -2.4145   -0.0534    0.1599 C   0  0  0  0  0  0  0  0  0  0  0  0
   -1.1749    0.1528   -0.4863 O   0  0  0  0  0  0  0  0  0  0  0  0
   -0.0689   -0.1084    0.3502 C   0  0  0  0  0  0  0  0  0  0  0  0
    1.2084    0.1442   -0.4449 C   0  0  0  0  0  0  0  0  0  0  0  0
    2.3084   -0.1251    0.3949 O   0  0  0  0  0  0  0  0  0  0  0  0
   -2.5139   -1.0926    0.4908 H   0  0  0  0  0  0  0  0  0  0  0  0
   -3.1804    0.1759   -0.5763 H   0  0  0  0  0  0  0  0  0  0  0  0
   -2.5183    0.6093    1.0255 H   0  0  0  0  0  0  0  0  0  0  0  0
   -0.0869    0.5467    1.2332 H   0  0  0  0  0  0  0  0  0  0  0  0
   -0.0833   -1.1515    0.6981 H   0  0  0  0  0  0  0  0  0  0  0  0
    1.2126    1.1877   -0.7828 H   0  0  0  0  0  0  0  0  0  0  0  0
    1.2103   -0.5108   -1.3247 H   0  0  0  0  0  0  0  0  0  0  0  0
    3.1280    0.0288   -0.0955 H   0  0  0  0  0  0  0  0  0  0  0  0
  1  2  1  0  0  0  0
  2  3  1  0  0  0  0
  3  4  1  0  0  0  0
  4  5  1  0  0  0  0
  1  6  1  0  0  0  0
  1  7  1  0  0  0  0
  1  8  1  0  0  0  0
  3  9  1  0  0  0  0
  3 10  1  0  0  0  0
  4 11  1  0  0  0  0
  4 12  1  0  0  0  0
  5 13  1  0  0  0  0
M  END
