19
 xtb: 6.7.1 (edcfbbe)
C            2.45634488498785        0.93287629459921       -0.17063691503518
C            1.17946253218229        0.24684208072716        0.31143724408434
C            1.37217818163718       -1.26641527609231        0.39860203008220
C            0.01546546497230        0.59631468779886       -0.64018545871981
C           -1.30289195106980        0.01107554576478       -0.21290335418655
O           -1.93595640018149       -0.74709267265939       -0.94497375634912
C           -1.80952472025354        0.37123408070951        1.15311324768025
H            2.33378435651079        2.02034921131919       -0.20682896086043
H            3.29384026730171        0.70576554227913        0.49721759202423
H            2.72322521383769        0.58713396242738       -1.17618899929111
H            0.93629039926104        0.63088065230361        1.31026397394012
H            2.20800185299923       -1.51329352021105        1.06082517205302
H            1.59099011998293       -1.68237375699994       -0.59183308242257
H            0.47968717663318       -1.77053332930601        0.78512149764270
H            0.24531887633434        0.24683644998332       -1.65240606508843
H           -0.10307090811691        1.68798995013923       -0.66554032343117
H           -2.87800092868050        0.16334786742239        1.23255777915904
H           -1.27996740115073       -0.24498134845395        1.89103020091233
H           -1.59671772162773        1.41577314371251        1.39561401468139
