15
 xtb: 6.7.1 (edcfbbe)
C            2.25977148534265       -0.56990034195359        0.58295664601761
C            1.52797835489281       -0.12430538501230       -0.68101120236605
C            0.58238350595233        1.05715638652942       -0.45810158308893
C           -0.52780515773455        0.82903766586946        0.56023963610246
S           -1.68698741407304       -0.55224243827217        0.13429097653952
H            1.57272710448853       -0.99172138713554        1.32397092900465
H            2.78140784195109        0.27237250376227        1.05228978130193
H            3.00388235972267       -1.33926630536231        0.35339423578338
H            0.96429108329096       -0.96807101830835       -1.09609010320829
H            2.26160680081207        0.16640916362968       -1.44209599987130
H            0.13323140934643        1.35557539415549       -1.41357152124910
H            1.16499797254079        1.91930889105080       -0.10271586996197
H           -0.12340198626855        0.55786019760034        1.54026638922587
H           -1.11884974467949        1.73897788253216        0.69200645638943
H           -2.10093115000695       -0.03828236881970       -1.03907925245202
