 xtb: 6.7.1 (edcfbbe)
          04112511183D

 27 27  0     0  0            999 V2000
   -4.2739   -1.9489   -1.3455 C   0  0  0  0  0  0  0  0  0  0  0  0
   -3.2964   -0.7921   -1.1778 C   0  0  0  0  0  0  0  0  0  0  0  0
   -2.4825   -0.9119    0.1145 C   0  0  0  0  0  0  0  0  0  0  0  0
   -2.0570   -1.9197    0.1708 H   0  0  0  0  0  0  0  0  0  0  0  0
   -3.3003   -0.6427    1.3725 C   0  0  0  0  0  0  0  0  0  0  0  0
   -1.3075   -0.0198    0.0676 N   0  0  0  0  0  0  0  0  0  0  0  0
   -0.0504   -0.6207    0.1211 C   0  0  0  0  0  0  0  0  0  0  0  0
    0.0731   -1.8314    0.2013 O   0  0  0  0  0  0  0  0  0  0  0  0
    1.0683    0.2955    0.0741 C   0  0  0  0  0  0  0  0  0  0  0  0
    0.9108    1.6400   -0.0164 C   0  0  0  0  0  0  0  0  0  0  0  0
   -0.3688    2.1077   -0.0630 N   0  0  0  0  0  0  0  0  0  0  0  0
   -1.5049    1.3367   -0.0265 C   0  0  0  0  0  0  0  0  0  0  0  0
   -2.5995    1.8656   -0.0767 O   0  0  0  0  0  0  0  0  0  0  0  0
    1.9908    2.6550   -0.0690 C   0  0  0  0  0  0  0  0  0  0  0  0
    2.7773   -0.5352    0.1499 Br  0  0  0  0  0  0  0  0  0  0  0  0
   -5.0301   -1.9356   -0.5665 H   0  0  0  0  0  0  0  0  0  0  0  0
   -4.7738   -1.8704   -2.3068 H   0  0  0  0  0  0  0  0  0  0  0  0
   -3.7483   -2.9003   -1.3058 H   0  0  0  0  0  0  0  0  0  0  0  0
   -2.6005   -0.7885   -2.0212 H   0  0  0  0  0  0  0  0  0  0  0  0
   -3.8356    0.1556   -1.1797 H   0  0  0  0  0  0  0  0  0  0  0  0
   -2.6626   -0.6967    2.2522 H   0  0  0  0  0  0  0  0  0  0  0  0
   -3.7602    0.3405    1.3245 H   0  0  0  0  0  0  0  0  0  0  0  0
   -4.0767   -1.3946    1.4647 H   0  0  0  0  0  0  0  0  0  0  0  0
   -0.5275    3.1085   -0.1312 H   0  0  0  0  0  0  0  0  0  0  0  0
    1.8993    3.3340    0.7764 H   0  0  0  0  0  0  0  0  0  0  0  0
    1.9039    3.2391   -0.9827 H   0  0  0  0  0  0  0  0  0  0  0  0
    2.9687    2.1851   -0.0404 H   0  0  0  0  0  0  0  0  0  0  0  0
  1  2  1  0  0  0  0
  2  3  1  0  0  0  0
  3  4  1  0  0  0  0
  3  5  1  0  0  0  0
  3  6  1  0  0  0  0
  6  7  1  0  0  0  0
  7  8  2  0  0  0  0
  7  9  1  0  0  0  0
  9 10  2  0  0  0  0
 10 11  1  0  0  0  0
  6 12  1  0  0  0  0
 11 12  1  0  0  0  0
 12 13  2  0  0  0  0
 10 14  1  0  0  0  0
  9 15  1  0  0  0  0
  1 16  1  0  0  0  0
  1 17  1  0  0  0  0
  1 18  1  0  0  0  0
  2 19  1  0  0  0  0
  2 20  1  0  0  0  0
  5 21  1  0  0  0  0
  5 22  1  0  0  0  0
  5 23  1  0  0  0  0
 11 24  1  0  0  0  0
 14 25  1  0  0  0  0
 14 26  1  0  0  0  0
 14 27  1  0  0  0  0
M  END
