 xtb: 6.7.1 (edcfbbe)
          04112511503D

 17 16  0     0  0            999 V2000
    2.5280   -0.3345    0.0004 C   0  0  0  0  0  0  0  0  0  0  0  0
    1.2677    0.5229   -0.0008 C   0  0  0  0  0  0  0  0  0  0  0  0
   -0.0000   -0.3284   -0.0001 C   0  0  0  0  0  0  0  0  0  0  0  0
   -1.2677    0.5228    0.0007 C   0  0  0  0  0  0  0  0  0  0  0  0
   -2.5280   -0.3345   -0.0003 C   0  0  0  0  0  0  0  0  0  0  0  0
    3.4169    0.2915   -0.0000 H   0  0  0  0  0  0  0  0  0  0  0  0
    2.5553   -0.9718   -0.8807 H   0  0  0  0  0  0  0  0  0  0  0  0
    2.5549   -0.9699    0.8828 H   0  0  0  0  0  0  0  0  0  0  0  0
    1.2676    1.1692    0.8800 H   0  0  0  0  0  0  0  0  0  0  0  0
    1.2679    1.1674   -0.8829 H   0  0  0  0  0  0  0  0  0  0  0  0
    0.0005   -0.9741    0.8814 H   0  0  0  0  0  0  0  0  0  0  0  0
   -0.0005   -0.9739   -0.8818 H   0  0  0  0  0  0  0  0  0  0  0  0
   -1.2678    1.1673    0.8829 H   0  0  0  0  0  0  0  0  0  0  0  0
   -1.2676    1.1693   -0.8800 H   0  0  0  0  0  0  0  0  0  0  0  0
   -2.5548   -0.9702   -0.8825 H   0  0  0  0  0  0  0  0  0  0  0  0
   -3.4169    0.2915   -0.0001 H   0  0  0  0  0  0  0  0  0  0  0  0
   -2.5554   -0.9715    0.8810 H   0  0  0  0  0  0  0  0  0  0  0  0
  1  2  1  0  0  0  0
  2  3  1  0  0  0  0
  3  4  1  0  0  0  0
  4  5  1  0  0  0  0
  1  6  1  0  0  0  0
  1  7  1  0  0  0  0
  1  8  1  0  0  0  0
  2  9  1  0  0  0  0
  2 10  1  0  0  0  0
  3 11  1  0  0  0  0
  3 12  1  0  0  0  0
  4 13  1  0  0  0  0
  4 14  1  0  0  0  0
  5 15  1  0  0  0  0
  5 16  1  0  0  0  0
  5 17  1  0  0  0  0
M  END
