 xtb: 6.7.1 (edcfbbe)
          04112513103D

 17 16  0     0  0            999 V2000
   -2.8814   -0.1582    0.2742 C   0  0  0  0  0  0  0  0  0  0  0  0
   -1.6606    0.7436    0.1571 C   0  0  0  0  0  0  0  0  0  0  0  0
   -0.4052   -0.0337   -0.1451 C   0  0  0  0  0  0  0  0  0  0  0  0
   -0.3390   -1.2358   -0.2843 O   0  0  0  0  0  0  0  0  0  0  0  0
    0.6435    0.7789   -0.2541 O   0  0  0  0  0  0  0  0  0  0  0  0
    1.9314    0.2001   -0.5239 C   0  0  0  0  0  0  0  0  0  0  0  0
    2.6224   -0.2281    0.7617 C   0  0  0  0  0  0  0  0  0  0  0  0
   -2.7388   -0.8850    1.0696 H   0  0  0  0  0  0  0  0  0  0  0  0
   -3.7651    0.4343    0.4896 H   0  0  0  0  0  0  0  0  0  0  0  0
   -3.0374   -0.7043   -0.6525 H   0  0  0  0  0  0  0  0  0  0  0  0
   -1.4903    1.2945    1.0837 H   0  0  0  0  0  0  0  0  0  0  0  0
   -1.7910    1.4791   -0.6385 H   0  0  0  0  0  0  0  0  0  0  0  0
    1.7962   -0.6561   -1.1918 H   0  0  0  0  0  0  0  0  0  0  0  0
    2.4868    0.9911   -1.0288 H   0  0  0  0  0  0  0  0  0  0  0  0
    3.6161   -0.5972    0.5300 H   0  0  0  0  0  0  0  0  0  0  0  0
    2.7017    0.6151    1.4426 H   0  0  0  0  0  0  0  0  0  0  0  0
    2.0547   -1.0212    1.2433 H   0  0  0  0  0  0  0  0  0  0  0  0
  1  2  1  0  0  0  0
  2  3  1  0  0  0  0
  3  4  2  0  0  0  0
  3  5  1  0  0  0  0
  5  6  1  0  0  0  0
  6  7  1  0  0  0  0
  1  8  1  0  0  0  0
  1  9  1  0  0  0  0
  1 10  1  0  0  0  0
  2 11  1  0  0  0  0
  2 12  1  0  0  0  0
  6 13  1  0  0  0  0
  6 14  1  0  0  0  0
  7 15  1  0  0  0  0
  7 16  1  0  0  0  0
  7 17  1  0  0  0  0
M  END
