  15
 
 C          4.2250000000       -3.9910000000       -0.0060000000
 C          3.2900000000       -2.9170000000       -0.5420000000
 C          1.9940000000       -2.8510000000        0.2660000000
 C          1.0740000000       -1.7920000000       -0.2650000000
 C          0.6440000000       -0.7470000000        0.4510000000
 H          5.1500000000       -4.0320000000       -0.5900000000
 H          3.7450000000       -4.9730000000       -0.0620000000
 H          4.4850000000       -3.7980000000        1.0390000000
 H          3.8020000000       -1.9480000000       -0.5100000000
 H          3.0680000000       -3.1290000000       -1.5950000000
 H          2.2260000000       -2.6700000000        1.3230000000
 H          1.4760000000       -3.8170000000        0.2160000000
 H          0.7350000000       -1.8930000000       -1.2930000000
 H         -0.0210000000       -0.0030000000        0.0270000000
 H          0.9550000000       -0.6230000000        1.4830000000
