21
 xtb: 6.7.1 (edcfbbe)
C            1.72604031375311       -1.15600944747808       -0.15586229203743
C            1.25084329029783        0.15100780769638        0.45689363719749
H            1.11527277956183        0.01505129993550        1.53718019675866
C           -0.05016350430114        0.69099636309337       -0.13475696906374
C           -1.27750433712487       -0.22920313336875        0.04654880244139
C           -2.52481234356120        0.59467308778274        0.37401795913374
C           -1.53973521944969       -1.09409368621327       -1.18883898486972
O            2.29058638309482        1.15711275590467        0.35062282784911
H            1.85463010167729       -1.04972535750692       -1.23950843711944
H            2.68462532064026       -1.44991478445780        0.28280445163431
H            1.00964133160012       -1.96189178530935        0.02915608813041
H           -0.24310067164900        1.65617387217421        0.34885437409326
H            0.10687587550898        0.89630525534812       -1.20399261382687
H           -1.08114085301744       -0.89446169389963        0.90005302878956
H           -3.40261796207777       -0.04881990259049        0.50005123925676
H           -2.74042234512757        1.30166397537440       -0.43663766114519
H           -2.38991817399517        1.17081792285609        1.29551609768527
H           -1.80710156749429       -0.45832411676675       -2.04162406769944
H           -0.66536472107091       -1.68482329362238       -1.47619746913800
H           -2.37102684233729       -1.78570661004736       -1.01311343319174
H            2.44854857624299        1.29909391664951       -0.59293156328201
