 xtb: 6.7.1 (edcfbbe)
          04112512023D

 21 21  0     0  0            999 V2000
   -3.6672   -0.3810   -0.9040 C   0  0  0  0  0  0  0  0  0  0  0  0
   -3.0079   -0.4352    0.4660 C   0  0  0  0  0  0  0  0  0  0  0  0
   -1.5890   -0.6182    0.3526 O   0  0  0  0  0  0  0  0  0  0  0  0
   -0.8278    0.4626    0.1953 C   0  0  0  0  0  0  0  0  0  0  0  0
   -1.2766    1.5953    0.1676 O   0  0  0  0  0  0  0  0  0  0  0  0
    0.6095    0.1423    0.0725 C   0  0  0  0  0  0  0  0  0  0  0  0
    1.5139    1.1922   -0.0809 C   0  0  0  0  0  0  0  0  0  0  0  0
    2.8653    0.9298   -0.1986 C   0  0  0  0  0  0  0  0  0  0  0  0
    3.3208   -0.3794   -0.1644 C   0  0  0  0  0  0  0  0  0  0  0  0
    2.4245   -1.4267   -0.0127 C   0  0  0  0  0  0  0  0  0  0  0  0
    1.0710   -1.1726    0.1058 C   0  0  0  0  0  0  0  0  0  0  0  0
   -3.4256   -1.2757   -1.4715 H   0  0  0  0  0  0  0  0  0  0  0  0
   -4.7432   -0.3116   -0.7823 H   0  0  0  0  0  0  0  0  0  0  0  0
   -3.3164    0.4912   -1.4513 H   0  0  0  0  0  0  0  0  0  0  0  0
   -3.3503   -1.2987    1.0374 H   0  0  0  0  0  0  0  0  0  0  0  0
   -3.1986    0.4885    1.0213 H   0  0  0  0  0  0  0  0  0  0  0  0
    1.1319    2.2018   -0.1042 H   0  0  0  0  0  0  0  0  0  0  0  0
    3.5626    1.7443   -0.3169 H   0  0  0  0  0  0  0  0  0  0  0  0
    4.3763   -0.5836   -0.2563 H   0  0  0  0  0  0  0  0  0  0  0  0
    2.7829   -2.4439    0.0132 H   0  0  0  0  0  0  0  0  0  0  0  0
    0.3649   -1.9788    0.2243 H   0  0  0  0  0  0  0  0  0  0  0  0
  1  2  1  0  0  0  0
  2  3  1  0  0  0  0
  3  4  1  0  0  0  0
  4  5  2  0  0  0  0
  4  6  1  0  0  0  0
  6  7  4  0  0  0  0
  7  8  4  0  0  0  0
  8  9  4  0  0  0  0
  9 10  4  0  0  0  0
  6 11  4  0  0  0  0
 10 11  4  0  0  0  0
  1 12  1  0  0  0  0
  1 13  1  0  0  0  0
  1 14  1  0  0  0  0
  2 15  1  0  0  0  0
  2 16  1  0  0  0  0
  7 17  1  0  0  0  0
  8 18  1  0  0  0  0
  9 19  1  0  0  0  0
 10 20  1  0  0  0  0
 11 21  1  0  0  0  0
M  END
