21
 xtb: 6.7.1 (edcfbbe)
C            1.88802956682558        1.06122537307785        0.15822764905631
C            1.38167070554268       -0.24173638024433       -0.43946945377997
H            2.01335802577366       -0.49766468639118       -1.30374766663026
C           -0.05936694889264       -0.17881339539985       -0.94329086000900
C           -1.12586133814184        0.46705445091010       -0.04624044138058
C           -2.44458778574000        0.54552585750995       -0.82014789393589
C           -1.34313250098338       -0.27174310341300        1.27528651460488
O            1.49122126106136       -1.32369949444668        0.52276812291760
H            2.95001344722673        0.97578589935441        0.41387460886816
H            1.77939726146475        1.87895682243403       -0.56260104117928
H            1.33573716622754        1.32301593501205        1.06593463477958
H           -0.03236037307443        0.37993951055820       -1.88769219352511
H           -0.37541613818429       -1.19994329288301       -1.19965401769748
H           -0.81003769347061        1.49410114538260        0.18102650409741
H           -2.80532432549546       -0.46017724343925       -1.06866710081201
H           -2.32663308518172        1.10139859594371       -1.75644391902197
H           -3.21980727824459        1.04190003754947       -0.22650231401193
H           -2.17153462949639        0.17985092171138        1.83359725718511
H           -1.59691081332641       -1.32325879707746        1.09130169963845
H           -0.45682667383478       -0.24731030048153        1.91426372330564
H            2.41278764325804       -1.35249067326064        0.81122601962862
