  29
 
 C         -5.0584393534       -0.3843252170       -0.0053511345
 C         -3.8023430809        0.4783508521        0.0075184585
 C         -2.5320796538       -0.3686231950        0.0060450964
 C         -1.2671081144        0.4861137083        0.0026006206
 C         -0.0003222431       -0.3660524933        0.0009940636
 C          1.2672410009        0.4848566850       -0.0001797546
 C          2.5319281958       -0.3704107133       -0.0004273730
 C          3.8015028173        0.4776560922       -0.0004996541
 C          5.0590709287       -0.3829462697       -0.0002548995
 H         -5.9513356700        0.2366308822       -0.0025562400
 H         -5.0797552130       -1.0125079929       -0.8933562101
 H         -5.0862786790       -1.0299420236        0.8698973119
 H         -3.8011837676        1.1307850740       -0.8687614957
 H         -3.8091676916        1.1166529452        0.8940763231
 H         -2.5288871216       -1.0139114172        0.8878548587
 H         -2.5322978126       -1.0151247524       -0.8749047406
 H         -1.2659337445        1.1333906266        0.8829867489
 H         -1.2695992389        1.1309184958       -0.8795877571
 H          0.0002162804       -1.0122552637        0.8821447554
 H         -0.0017226310       -1.0118280684       -0.8804705661
 H          1.2678364643        1.1305156660       -0.8817634559
 H          1.2688325424        1.1312954320        0.8808348868
 H          2.5304263200       -1.0162613320       -0.8818463286
 H          2.5306268883       -1.0162505095        0.8810048618
 H          3.8035624889        1.1229187843       -0.8820715938
 H          3.8034268142        1.1231285666        0.8809206663
 H          5.9505514172        0.2401008530       -0.0001113945
 H          5.0853652206       -1.0198355624       -0.8819243616
 H          5.0850299279       -1.0197429372        0.8814974577
          29
        -29.48703914
 C         -5.0599620123       -0.3784779138        0.0024881249
 C         -3.8006812124        0.4793898032        0.0029808134
 C         -2.5328459940       -0.3712246040       -0.0026697578
 C         -1.2668367585        0.4819474507       -0.0017407343
 C          0.0001990084       -0.3697196680       -0.0024883732
 C          1.2667082198        0.4829112445       -0.0022095702
 C          2.5327876736       -0.3700892063       -0.0010296689
 C          3.8011501919        0.4798190464        0.0007956478
 C          5.0595202473       -0.3794987393        0.0033537507
 H         -5.9501470446        0.2463698786        0.0060819673
 H         -5.0891286009       -1.0124991505       -0.8811632467
 H         -5.0859983817       -1.0180629996        0.8822249690
 H         -3.8031555912        1.1281347291       -0.8760625633
 H         -3.7995370057        1.1215410905        0.8868589827
 H         -2.5310866760       -1.0204318820        0.8763106111
 H         -2.5343279810       -1.0137707169       -0.8865081639
 H         -1.2671118633        1.1270372740        0.8802855157
 H         -1.2670286183        1.1291396495       -0.8822536171
 H          0.0005660738       -1.0161136157        0.8785249456
 H          0.0002977583       -1.0153458570       -0.8840424801
 H          1.2671491061        1.1286599408       -0.8837529051
 H          1.2661435914        1.1294098110        0.8787916316
 H          2.5335917718       -1.0157758485       -0.8826485876
 H          2.5314962193       -1.0162185814        0.8802801884
 H          3.8039633820        1.1249919864       -0.8809265349
 H          3.8009294570        1.1255844853        0.8820458432
 H          5.0878950735       -1.0164158656       -0.8780521657
 H          5.0844485086       -1.0163167803        0.8851152823
 H          5.9505717265        0.2439711412        0.0050843241
