 29

C      0.500000    -2.015000    -1.289000
C      0.819000    -1.928000     0.195000
C      2.016000    -2.784000     0.614000
C      2.334000    -2.694000     2.108000
C      3.537000    -3.567000     2.473000
C      3.856000    -3.479000     3.966000
C      5.058000    -4.351000     4.331000
C      5.377000    -4.263000     5.823000
C      6.571000    -5.128000     6.191000
H     -0.361000    -1.389000    -1.544000
H      1.356000    -1.669000    -1.878000
H      0.284000    -3.043000    -1.594000
H      0.993000    -0.882000     0.470000
H     -0.060000    -2.262000     0.760000
H      1.798000    -3.828000     0.356000
H      2.898000    -2.493000     0.030000
H      1.460000    -3.012000     2.690000
H      2.548000    -1.656000     2.385000
H      3.330000    -4.610000     2.203000
H      4.410000    -3.249000     1.891000
H      4.063000    -2.436000     4.237000
H      2.982000    -3.796000     4.548000
H      5.933000    -4.034000     3.749000
H      4.851000    -5.394000     4.060000
H      5.589000    -3.223000     6.097000
H      4.507000    -4.582000     6.409000
H      6.781000    -5.049000     7.262000
H      7.467000    -4.813000     5.645000
H      6.380000    -6.181000     5.958000
