 xtb: 6.7.1 (edcfbbe)
          04112512403D

 18 17  0     0  0            999 V2000
   -1.9682    1.4549    0.0659 C   0  0  0  0  0  0  0  0  0  0  0  0
   -1.4934    0.0723   -0.3685 C   0  0  0  0  0  0  0  0  0  0  0  0
   -0.1537   -0.3455    0.2468 C   0  0  0  0  0  0  0  0  0  0  0  0
   -0.1660   -0.1304    1.3205 H   0  0  0  0  0  0  0  0  0  0  0  0
    0.0812   -1.8432    0.0551 C   0  0  0  0  0  0  0  0  0  0  0  0
    1.0135    0.4388   -0.3598 C   0  0  0  0  0  0  0  0  0  0  0  0
    2.1930    0.1436    0.3647 O   0  0  0  0  0  0  0  0  0  0  0  0
   -2.9563    1.6546   -0.3412 H   0  0  0  0  0  0  0  0  0  0  0  0
   -2.0252    1.5123    1.1504 H   0  0  0  0  0  0  0  0  0  0  0  0
   -1.2956    2.2334   -0.2840 H   0  0  0  0  0  0  0  0  0  0  0  0
   -1.4121    0.0378   -1.4573 H   0  0  0  0  0  0  0  0  0  0  0  0
   -2.2444   -0.6618   -0.0701 H   0  0  0  0  0  0  0  0  0  0  0  0
   -0.6755   -2.4191    0.5814 H   0  0  0  0  0  0  0  0  0  0  0  0
    1.0596   -2.1141    0.4432 H   0  0  0  0  0  0  0  0  0  0  0  0
    0.0416   -2.0990   -1.0018 H   0  0  0  0  0  0  0  0  0  0  0  0
    0.8073    1.5151   -0.3080 H   0  0  0  0  0  0  0  0  0  0  0  0
    1.1326    0.1545   -1.4146 H   0  0  0  0  0  0  0  0  0  0  0  0
    2.9344    0.6258   -0.0234 H   0  0  0  0  0  0  0  0  0  0  0  0
  1  2  1  0  0  0  0
  2  3  1  0  0  0  0
  3  4  1  0  0  0  0
  3  5  1  0  0  0  0
  3  6  1  0  0  0  0
  6  7  1  0  0  0  0
  1  8  1  0  0  0  0
  1  9  1  0  0  0  0
  1 10  1  0  0  0  0
  2 11  1  0  0  0  0
  2 12  1  0  0  0  0
  5 13  1  0  0  0  0
  5 14  1  0  0  0  0
  5 15  1  0  0  0  0
  6 16  1  0  0  0  0
  6 17  1  0  0  0  0
  7 18  1  0  0  0  0
M  END
