  15
 
 C          1.9690000000       -1.0340000000       -1.6050000000
 C          1.8850000000       -1.0360000000       -0.1120000000
 C          2.9210000000       -1.6310000000        0.6080000000
 C          2.8780000000       -1.6520000000        2.0020000000
 C          1.8000000000       -1.0790000000        2.6760000000
 C          0.7640000000       -0.4840000000        1.9550000000
 C          0.8070000000       -0.4630000000        0.5610000000
 Cl        -0.4930000000        0.2820000000       -0.2970000000
 H          2.4860000000       -0.1340000000       -1.9500000000
 H          2.5100000000       -1.9150000000       -1.9670000000
 H          0.9690000000       -1.0620000000       -2.0520000000
 H          3.7670000000       -2.0790000000        0.0930000000
 H          3.6860000000       -2.1130000000        2.5630000000
 H          1.7690000000       -1.0920000000        3.7610000000
 H         -0.0680000000       -0.0400000000        2.4950000000
