17
 xtb: 6.7.1 (edcfbbe)
C           -2.47403366750931        0.52238466160347       -0.84133343973651
C           -1.86866428506635       -0.50008995552530        0.11546988224876
C           -0.85610224599235        0.10215772264593        1.06956690116610
O            0.26384756060137        0.70878118189395        0.34616933612578
C            1.25881095395733       -0.11046246143852       -0.04443796839266
O            1.29133092530511       -1.30388322270308        0.21168909710573
C            2.30391661643217        0.60724867444111       -0.83681554229335
H           -2.95914763644241        1.33481976220700       -0.28929216810134
H           -1.70974874448013        0.96311518475132       -1.48906449318544
H           -3.22557518702151        0.05488586232222       -1.48441776480950
H           -1.40454697006184       -1.32071431488158       -0.44291639471301
H           -2.65590781538312       -0.94528111304922        0.73638034214971
H           -1.28859013865224        0.93692794918641        1.62665817709905
H           -0.46329225444993       -0.63783823278543        1.77090762897946
H            2.22014724743430        1.69009762856372       -0.74652189527215
H            2.18141512425505        0.32653770443194       -1.88875646829469
H            3.29230192210499        0.27058632671358       -0.51677674085871
