 xtb: 6.7.1 (edcfbbe)
          04112512423D

 17 16  0     0  0            999 V2000
   -2.0954    1.3459    0.0276 C   0  0  0  0  0  0  0  0  0  0  0  0
   -1.9279   -0.1325    0.3546 C   0  0  0  0  0  0  0  0  0  0  0  0
   -0.5461   -0.6705    0.0851 C   0  0  0  0  0  0  0  0  0  0  0  0
   -0.3008   -1.8525   -0.0708 O   0  0  0  0  0  0  0  0  0  0  0  0
    0.3851    0.2677    0.0567 O   0  0  0  0  0  0  0  0  0  0  0  0
    1.7443   -0.1432   -0.1630 C   0  0  0  0  0  0  0  0  0  0  0  0
    2.6490    1.0445    0.1029 C   0  0  0  0  0  0  0  0  0  0  0  0
   -1.8856    1.5303   -1.0225 H   0  0  0  0  0  0  0  0  0  0  0  0
   -3.1161    1.6519    0.2378 H   0  0  0  0  0  0  0  0  0  0  0  0
   -1.4173    1.9485    0.6241 H   0  0  0  0  0  0  0  0  0  0  0  0
   -2.6309   -0.7480   -0.2089 H   0  0  0  0  0  0  0  0  0  0  0  0
   -2.1249   -0.3075    1.4156 H   0  0  0  0  0  0  0  0  0  0  0  0
    1.9654   -0.9838    0.5033 H   0  0  0  0  0  0  0  0  0  0  0  0
    1.8332   -0.4956   -1.1958 H   0  0  0  0  0  0  0  0  0  0  0  0
    3.6801    0.7556   -0.0719 H   0  0  0  0  0  0  0  0  0  0  0  0
    2.3887    1.8649   -0.5591 H   0  0  0  0  0  0  0  0  0  0  0  0
    2.5393    1.3750    1.1315 H   0  0  0  0  0  0  0  0  0  0  0  0
  1  2  1  0  0  0  0
  2  3  1  0  0  0  0
  3  4  2  0  0  0  0
  3  5  1  0  0  0  0
  5  6  1  0  0  0  0
  6  7  1  0  0  0  0
  1  8  1  0  0  0  0
  1  9  1  0  0  0  0
  1 10  1  0  0  0  0
  2 11  1  0  0  0  0
  2 12  1  0  0  0  0
  6 13  1  0  0  0  0
  6 14  1  0  0  0  0
  7 15  1  0  0  0  0
  7 16  1  0  0  0  0
  7 17  1  0  0  0  0
M  END
