23
 xtb: 6.7.1 (edcfbbe)
C            1.38698010008420        1.50722740650841        0.84380106278534
C            1.42767671550464        0.17308681320474        0.10250159552447
C            0.08403398611955       -0.54927004515130       -0.14838722240204
C            0.39587388368253       -1.76771334684951       -1.03124082503578
C           -0.50898437631248       -1.05266104327724        1.17214514159986
C           -0.92411555680452        0.34429857269640       -0.91752087332001
C           -1.81666581719314        1.27369704727445       -0.09256484572061
H            0.88003523724976        1.42806262199818        1.81126525487138
H            0.88353027426434        2.28161491295411        0.25752785158302
H            2.40680141417930        1.85812681142396        1.03628389674246
H            1.90934380689767        0.33175076350327       -0.87223075795019
H            2.07541906192329       -0.52111967480231        0.65565643714690
H            1.16904964567478       -2.39599365817461       -0.57366835715074
H            0.75566644125154       -1.45340435855956       -2.01839634204231
H           -0.49894348660759       -2.38308771616589       -1.17777659125345
H           -1.45207458269402       -1.58388167316493        0.99815548155592
H            0.18495316112139       -1.75070685560026        1.65492122210325
H           -0.71030829162796       -0.24014460162579        1.87680795116658
H           -0.36259227781433        0.93163786073059       -1.65709364135741
H           -1.58446477998514       -0.31560777405716       -1.49588269008977
H           -2.51519635387015        0.70483595147054        0.52906841071273
H           -1.25148540929278        1.93625680903683        0.56697259941037
H           -2.41506992713090        1.90368298921815       -0.75982982877570
