  16
 
 C         -1.1150000000        1.9920000000       -0.6990000000
 C         -1.0620000000        0.5170000000       -0.3340000000
 C          0.3520000000        0.0850000000        0.0500000000
 C          0.4000000000       -1.3950000000        0.4150000000
 C          1.7860000000       -1.8540000000        0.8000000000
 O          2.7790000000       -1.1350000000        0.8230000000
 H         -2.1350000000        2.2800000000       -0.9700000000
 H         -0.4630000000        2.2090000000       -1.5510000000
 H         -0.7980000000        2.6160000000        0.1440000000
 H         -1.4150000000       -0.0760000000       -1.1850000000
 H         -1.7480000000        0.3290000000        0.5000000000
 H          0.7060000000        0.6860000000        0.8970000000
 H          1.0380000000        0.2820000000       -0.7830000000
 H          0.0730000000       -2.0090000000       -0.4310000000
 H         -0.2620000000       -1.6020000000        1.2630000000
 H          1.8630000000       -2.9210000000        1.0720000000
