 xtb: 6.7.1 (edcfbbe)
          04112511343D

 15 14  0     0  0            999 V2000
    2.4181   -0.3065   -0.2612 C   0  0  0  0  0  0  0  0  0  0  0  0
    1.0970   -0.1323    0.4778 C   0  0  0  0  0  0  0  0  0  0  0  0
   -0.0361    0.2643   -0.4743 C   0  0  0  0  0  0  0  0  0  0  0  0
   -1.3235    0.4560    0.2608 C   0  0  0  0  0  0  0  0  0  0  0  0
   -2.4281   -0.2298    0.0336 C   0  0  0  0  0  0  0  0  0  0  0  0
    3.2067   -0.5922    0.4305 H   0  0  0  0  0  0  0  0  0  0  0  0
    2.7074    0.6218   -0.7490 H   0  0  0  0  0  0  0  0  0  0  0  0
    2.3304   -1.0798   -1.0211 H   0  0  0  0  0  0  0  0  0  0  0  0
    0.8309   -1.0661    0.9781 H   0  0  0  0  0  0  0  0  0  0  0  0
    1.2073    0.6362    1.2460 H   0  0  0  0  0  0  0  0  0  0  0  0
   -0.1568   -0.5041   -1.2402 H   0  0  0  0  0  0  0  0  0  0  0  0
    0.2348    1.2006   -0.9707 H   0  0  0  0  0  0  0  0  0  0  0  0
   -1.3032    1.2124    1.0353 H   0  0  0  0  0  0  0  0  0  0  0  0
   -3.3325   -0.0605    0.5927 H   0  0  0  0  0  0  0  0  0  0  0  0
   -2.4747   -0.9897   -0.7294 H   0  0  0  0  0  0  0  0  0  0  0  0
  1  2  1  0  0  0  0
  2  3  1  0  0  0  0
  3  4  1  0  0  0  0
  4  5  2  0  0  0  0
  1  6  1  0  0  0  0
  1  7  1  0  0  0  0
  1  8  1  0  0  0  0
  2  9  1  0  0  0  0
  2 10  1  0  0  0  0
  3 11  1  0  0  0  0
  3 12  1  0  0  0  0
  4 13  1  0  0  0  0
  5 14  1  0  0  0  0
  5 15  1  0  0  0  0
M  END
