 xtb: 6.7.1 (edcfbbe)
          04112511583D

 20 19  0     0  0            999 V2000
    2.2674    0.2540   -0.7532 C   0  0  0  0  0  0  0  0  0  0  0  0
    1.5243    0.5443    0.5462 C   0  0  0  0  0  0  0  0  0  0  0  0
    0.3215   -0.3731    0.7747 C   0  0  0  0  0  0  0  0  0  0  0  0
   -0.7992   -0.2641   -0.2662 C   0  0  0  0  0  0  0  0  0  0  0  0
   -1.4232    1.1294   -0.2880 C   0  0  0  0  0  0  0  0  0  0  0  0
   -1.8740   -1.3092    0.0329 C   0  0  0  0  0  0  0  0  0  0  0  0
    2.5497   -0.7954   -0.8030 H   0  0  0  0  0  0  0  0  0  0  0  0
    1.6503    0.4861   -1.6172 H   0  0  0  0  0  0  0  0  0  0  0  0
    3.1712    0.8559   -0.8122 H   0  0  0  0  0  0  0  0  0  0  0  0
    2.2142    0.4079    1.3828 H   0  0  0  0  0  0  0  0  0  0  0  0
    1.2044    1.5872    0.5577 H   0  0  0  0  0  0  0  0  0  0  0  0
    0.6758   -1.4072    0.7925 H   0  0  0  0  0  0  0  0  0  0  0  0
   -0.0998   -0.1541    1.7595 H   0  0  0  0  0  0  0  0  0  0  0  0
   -0.3848   -0.4781   -1.2565 H   0  0  0  0  0  0  0  0  0  0  0  0
   -2.2614    1.1550   -0.9808 H   0  0  0  0  0  0  0  0  0  0  0  0
   -0.7023    1.8784   -0.6040 H   0  0  0  0  0  0  0  0  0  0  0  0
   -1.7883    1.3955    0.7019 H   0  0  0  0  0  0  0  0  0  0  0  0
   -2.3153   -1.1286    1.0110 H   0  0  0  0  0  0  0  0  0  0  0  0
   -2.6647   -1.2686   -0.7127 H   0  0  0  0  0  0  0  0  0  0  0  0
   -1.4494   -2.3105    0.0279 H   0  0  0  0  0  0  0  0  0  0  0  0
  1  2  1  0  0  0  0
  2  3  1  0  0  0  0
  3  4  1  0  0  0  0
  4  5  1  0  0  0  0
  4  6  1  0  0  0  0
  1  7  1  0  0  0  0
  1  8  1  0  0  0  0
  1  9  1  0  0  0  0
  2 10  1  0  0  0  0
  2 11  1  0  0  0  0
  3 12  1  0  0  0  0
  3 13  1  0  0  0  0
  4 14  1  0  0  0  0
  5 15  1  0  0  0  0
  5 16  1  0  0  0  0
  5 17  1  0  0  0  0
  6 18  1  0  0  0  0
  6 19  1  0  0  0  0
  6 20  1  0  0  0  0
M  END
