 24

C     -0.024000     1.048000     0.316000
C     -0.555000     1.938000    -0.796000
C      0.324000     1.860000    -2.044000
C     -0.215000     2.759000    -3.161000
C      0.648000     2.686000    -4.395000
C      1.716000     3.570000    -4.551000
C      2.515000     3.503000    -5.693000
C      2.245000     2.553000    -6.678000
C      1.177000     1.669000    -6.522000
C      0.379000     1.736000    -5.380000
H     -0.659000     1.110000     1.205000
H      0.993000     1.338000     0.599000
H     -0.000000     0.004000    -0.012000
H     -0.601000     2.973000    -0.437000
H     -1.579000     1.633000    -1.042000
H      1.349000     2.158000    -1.789000
H      0.375000     0.821000    -2.393000
H     -0.272000     3.797000    -2.808000
H     -1.244000     2.465000    -3.410000
H      1.933000     4.313000    -3.789000
H      3.346000     4.191000    -5.815000
H      2.867000     2.501000    -7.567000
H      0.967000     0.930000    -7.289000
H     -0.451000     1.043000    -5.267000
