 xtb: 6.7.1 (edcfbbe)
          04112512143D

 21 20  0     0  0            999 V2000
    2.2448   -0.9575   -0.7240 C   0  0  0  0  0  0  0  0  0  0  0  0
    1.5897    0.3552   -0.3175 C   0  0  0  0  0  0  0  0  0  0  0  0
    0.3494    0.1824    0.5666 C   0  0  0  0  0  0  0  0  0  0  0  0
    0.6484   -0.3943    1.4596 H   0  0  0  0  0  0  0  0  0  0  0  0
   -0.8086   -0.5782   -0.1155 C   0  0  0  0  0  0  0  0  0  0  0  0
   -1.9623   -0.7960    0.8665 C   0  0  0  0  0  0  0  0  0  0  0  0
   -1.3101    0.1506   -1.3606 C   0  0  0  0  0  0  0  0  0  0  0  0
   -0.0307    1.4892    0.9678 O   0  0  0  0  0  0  0  0  0  0  0  0
    1.6084   -1.5228   -1.3993 H   0  0  0  0  0  0  0  0  0  0  0  0
    2.4503   -1.5685    0.1521 H   0  0  0  0  0  0  0  0  0  0  0  0
    3.1844   -0.7571   -1.2318 H   0  0  0  0  0  0  0  0  0  0  0  0
    2.2992    0.9569    0.2549 H   0  0  0  0  0  0  0  0  0  0  0  0
    1.3153    0.9349   -1.1986 H   0  0  0  0  0  0  0  0  0  0  0  0
   -0.4209   -1.5600   -0.4014 H   0  0  0  0  0  0  0  0  0  0  0  0
   -2.6943   -1.4732    0.4335 H   0  0  0  0  0  0  0  0  0  0  0  0
   -1.6024   -1.2329    1.7960 H   0  0  0  0  0  0  0  0  0  0  0  0
   -2.4668    0.1423    1.0866 H   0  0  0  0  0  0  0  0  0  0  0  0
   -2.2317   -0.3041   -1.7152 H   0  0  0  0  0  0  0  0  0  0  0  0
   -0.5782    0.1067   -2.1622 H   0  0  0  0  0  0  0  0  0  0  0  0
   -1.5029    1.1954   -1.1260 H   0  0  0  0  0  0  0  0  0  0  0  0
   -0.7481    1.4226    1.6114 H   0  0  0  0  0  0  0  0  0  0  0  0
  1  2  1  0  0  0  0
  2  3  1  0  0  0  0
  3  4  1  0  0  0  0
  3  5  1  0  0  0  0
  5  6  1  0  0  0  0
  5  7  1  0  0  0  0
  3  8  1  0  0  0  0
  1  9  1  0  0  0  0
  1 10  1  0  0  0  0
  1 11  1  0  0  0  0
  2 12  1  0  0  0  0
  2 13  1  0  0  0  0
  5 14  1  0  0  0  0
  6 15  1  0  0  0  0
  6 16  1  0  0  0  0
  6 17  1  0  0  0  0
  7 18  1  0  0  0  0
  7 19  1  0  0  0  0
  7 20  1  0  0  0  0
  8 21  1  0  0  0  0
M  END
