 12

C      0.441000    -0.350000     0.940000
C      1.852000    -0.868000     0.734000
S      2.926000     0.445000     0.092000
C      4.461000    -0.502000    -0.023000
H     -0.222000    -1.131000     1.327000
H      0.421000     0.499000     1.631000
H      0.027000    -0.009000    -0.015000
H      1.850000    -1.701000     0.024000
H      2.264000    -1.229000     1.681000
H      5.260000     0.136000    -0.404000
H      4.322000    -1.347000    -0.700000
H      4.738000    -0.875000     0.965000
