 xtb: 6.7.1 (edcfbbe)
          04112512213D

 19 18  0     0  0            999 V2000
    2.4900    0.7874    0.3331 C   0  0  0  0  0  0  0  0  0  0  0  0
    1.2447   -0.0896    0.2329 C   0  0  0  0  0  0  0  0  0  0  0  0
    1.4122   -1.1359   -0.8669 C   0  0  0  0  0  0  0  0  0  0  0  0
    0.0070    0.7709   -0.0400 C   0  0  0  0  0  0  0  0  0  0  0  0
   -1.2957    0.0325    0.1415 C   0  0  0  0  0  0  0  0  0  0  0  0
   -1.3975   -0.9783    0.8091 O   0  0  0  0  0  0  0  0  0  0  0  0
   -2.4700    0.6522   -0.5606 C   0  0  0  0  0  0  0  0  0  0  0  0
    2.6455    1.3302   -0.5966 H   0  0  0  0  0  0  0  0  0  0  0  0
    2.3928    1.5065    1.1429 H   0  0  0  0  0  0  0  0  0  0  0  0
    3.3677    0.1750    0.5234 H   0  0  0  0  0  0  0  0  0  0  0  0
    1.0918   -0.6095    1.1850 H   0  0  0  0  0  0  0  0  0  0  0  0
    1.5500   -0.6549   -1.8331 H   0  0  0  0  0  0  0  0  0  0  0  0
    0.5342   -1.7765   -0.9164 H   0  0  0  0  0  0  0  0  0  0  0  0
    2.2782   -1.7618   -0.6671 H   0  0  0  0  0  0  0  0  0  0  0  0
    0.0488    1.1940   -1.0442 H   0  0  0  0  0  0  0  0  0  0  0  0
   -0.0175    1.6051    0.6672 H   0  0  0  0  0  0  0  0  0  0  0  0
   -2.4641    1.7305   -0.4347 H   0  0  0  0  0  0  0  0  0  0  0  0
   -2.3862    0.4349   -1.6237 H   0  0  0  0  0  0  0  0  0  0  0  0
   -3.3994    0.2299   -0.1889 H   0  0  0  0  0  0  0  0  0  0  0  0
  1  2  1  0  0  0  0
  2  3  1  0  0  0  0
  2  4  1  0  0  0  0
  4  5  1  0  0  0  0
  5  6  2  0  0  0  0
  5  7  1  0  0  0  0
  1  8  1  0  0  0  0
  1  9  1  0  0  0  0
  1 10  1  0  0  0  0
  2 11  1  0  0  0  0
  3 12  1  0  0  0  0
  3 13  1  0  0  0  0
  3 14  1  0  0  0  0
  4 15  1  0  0  0  0
  4 16  1  0  0  0  0
  7 17  1  0  0  0  0
  7 18  1  0  0  0  0
  7 19  1  0  0  0  0
M  END
