 19

C     -0.003000    -0.640000     0.888000
C      1.268000    -0.453000     1.700000
C      2.511000    -0.807000     0.883000
C      3.788000    -0.617000     1.703000
C      5.027000    -0.971000     0.889000
N      6.230000    -0.794000     1.655000
H     -0.879000    -0.381000     1.491000
H     -0.000000     0.000000     0.000000
H     -0.111000    -1.680000     0.562000
H      1.219000    -1.082000     2.596000
H      1.329000     0.588000     2.038000
H      2.553000    -0.178000    -0.014000
H      2.443000    -1.848000     0.544000
H      3.748000    -1.243000     2.603000
H      3.857000     0.422000     2.046000
H      5.109000    -0.335000     0.001000
H      4.996000    -2.016000     0.566000
H      6.532000    -1.530000     2.274000
H      6.641000     0.124000     1.721000
