16
 xtb: 6.7.1 (edcfbbe)
C           -2.37196995048747        0.16565274871344       -0.15021354348210
C           -0.94397715195274        0.32934250643945        0.34311061454962
N           -0.07551215271811       -0.72700312684154       -0.20186613560453
C            1.32122166194086       -0.60727594120468        0.25121807066660
C            2.05906575441872        0.66232977367007       -0.17213620608333
H           -2.41340382298123        0.21327917845247       -1.24464480509391
H           -2.79585702443123       -0.79328463090443        0.16457698090192
H           -3.00692836643057        0.96608700863185        0.24203808772733
H           -0.91653483221895        0.25552584438717        1.43802014999363
H           -0.59503258033809        1.34332754880229        0.08804955463027
H           -0.07443417547335       -0.61368996389274       -1.21416776147394
H            1.32667108658502       -0.68930211787023        1.34559803650106
H            1.87067061897501       -1.47740470507333       -0.12752520885783
H            3.10801830269351        0.61041913140617        0.13987761410386
H            2.03805363304202        0.77554622628460       -1.26266009388498
H            1.62578465222474        1.56227066012244        0.27426641947685
