 xtb: 6.7.1 (edcfbbe)
          04072509193D

 19 19  0     0  0            999 V2000
   -2.5255    0.0672   -0.5434 C   0  0  0  0  0  0  0  0  0  0  0  0
   -1.9463   -1.1628   -0.2785 C   0  0  0  0  0  0  0  0  0  0  0  0
   -0.6775   -1.2287    0.2674 C   0  0  0  0  0  0  0  0  0  0  0  0
    0.0314   -0.0688    0.5586 C   0  0  0  0  0  0  0  0  0  0  0  0
   -0.5589    1.1587    0.2912 C   0  0  0  0  0  0  0  0  0  0  0  0
   -1.8286    1.2277   -0.2561 C   0  0  0  0  0  0  0  0  0  0  0  0
    1.4254   -0.1563    1.1119 C   0  0  0  0  0  0  0  0  0  0  0  0
    2.4401   -0.4765    0.0021 C   0  0  0  0  0  0  0  0  0  0  0  0
    2.5364    0.5314   -0.9785 O   0  0  0  0  0  0  0  0  0  0  0  0
   -3.5157    0.1198   -0.9707 H   0  0  0  0  0  0  0  0  0  0  0  0
   -2.4855   -2.0726   -0.4981 H   0  0  0  0  0  0  0  0  0  0  0  0
   -0.2301   -2.1907    0.4732 H   0  0  0  0  0  0  0  0  0  0  0  0
   -0.0246    2.0705    0.5146 H   0  0  0  0  0  0  0  0  0  0  0  0
   -2.2743    2.1903   -0.4593 H   0  0  0  0  0  0  0  0  0  0  0  0
    1.6994    0.7870    1.5881 H   0  0  0  0  0  0  0  0  0  0  0  0
    1.4834   -0.9519    1.8558 H   0  0  0  0  0  0  0  0  0  0  0  0
    3.4252   -0.6641    0.4507 H   0  0  0  0  0  0  0  0  0  0  0  0
    2.1280   -1.3734   -0.5382 H   0  0  0  0  0  0  0  0  0  0  0  0
    2.8529    1.3457   -0.5634 H   0  0  0  0  0  0  0  0  0  0  0  0
  1  2  4  0  0  0  0
  2  3  4  0  0  0  0
  3  4  4  0  0  0  0
  4  5  4  0  0  0  0
  1  6  4  0  0  0  0
  5  6  4  0  0  0  0
  4  7  1  0  0  0  0
  7  8  1  0  0  0  0
  8  9  1  0  0  0  0
  1 10  1  0  0  0  0
  2 11  1  0  0  0  0
  3 12  1  0  0  0  0
  5 13  1  0  0  0  0
  6 14  1  0  0  0  0
  7 15  1  0  0  0  0
  7 16  1  0  0  0  0
  8 17  1  0  0  0  0
  8 18  1  0  0  0  0
  9 19  1  0  0  0  0
M  END
