 xtb: 6.7.1 (edcfbbe)
          04112511243D

 18 17  0     0  0            999 V2000
    2.1326   -1.0145   -0.3678 C   0  0  0  0  0  0  0  0  0  0  0  0
    1.7463    0.3921    0.0751 C   0  0  0  0  0  0  0  0  0  0  0  0
    0.3581    0.4746    0.7088 C   0  0  0  0  0  0  0  0  0  0  0  0
   -0.8010    0.1865   -0.2588 C   0  0  0  0  0  0  0  0  0  0  0  0
   -0.4446    0.3148   -1.2943 H   0  0  0  0  0  0  0  0  0  0  0  0
   -1.3675   -1.2225   -0.0891 C   0  0  0  0  0  0  0  0  0  0  0  0
   -1.8017    1.1660   -0.0042 O   0  0  0  0  0  0  0  0  0  0  0  0
    2.0541   -1.7098    0.4647 H   0  0  0  0  0  0  0  0  0  0  0  0
    3.1590   -1.0247   -0.7269 H   0  0  0  0  0  0  0  0  0  0  0  0
    1.4890   -1.3595   -1.1727 H   0  0  0  0  0  0  0  0  0  0  0  0
    2.4740    0.7430    0.8098 H   0  0  0  0  0  0  0  0  0  0  0  0
    1.7910    1.0681   -0.7816 H   0  0  0  0  0  0  0  0  0  0  0  0
    0.3003   -0.2069    1.5588 H   0  0  0  0  0  0  0  0  0  0  0  0
    0.2040    1.4877    1.0865 H   0  0  0  0  0  0  0  0  0  0  0  0
   -2.1408   -1.4181   -0.8295 H   0  0  0  0  0  0  0  0  0  0  0  0
   -0.5814   -1.9610   -0.2057 H   0  0  0  0  0  0  0  0  0  0  0  0
   -1.8006   -1.3219    0.9038 H   0  0  0  0  0  0  0  0  0  0  0  0
   -2.5782    0.9773   -0.5481 H   0  0  0  0  0  0  0  0  0  0  0  0
  1  2  1  0  0  0  0
  2  3  1  0  0  0  0
  3  4  1  0  0  0  0
  4  5  1  0  0  0  0
  4  6  1  0  0  0  0
  4  7  1  0  0  0  0
  1  8  1  0  0  0  0
  1  9  1  0  0  0  0
  1 10  1  0  0  0  0
  2 11  1  0  0  0  0
  2 12  1  0  0  0  0
  3 13  1  0  0  0  0
  3 14  1  0  0  0  0
  6 15  1  0  0  0  0
  6 16  1  0  0  0  0
  6 17  1  0  0  0  0
  7 18  1  0  0  0  0
M  END
