 xtb: 6.7.1 (edcfbbe)
          04112512393D

 17 16  0     0  0            999 V2000
   -3.1068    0.6505   -0.0304 C   0  0  0  0  0  0  0  0  0  0  0  0
   -1.6759    0.3524   -0.4589 C   0  0  0  0  0  0  0  0  0  0  0  0
   -0.8547   -0.2156    0.7089 C   0  0  0  0  0  0  0  0  0  0  0  0
    0.5406   -0.5122    0.2338 C   0  0  0  0  0  0  0  0  0  0  0  0
    0.9198   -1.5809   -0.1990 O   0  0  0  0  0  0  0  0  0  0  0  0
    1.3215    0.5597    0.3069 O   0  0  0  0  0  0  0  0  0  0  0  0
    2.6652    0.4367   -0.1665 C   0  0  0  0  0  0  0  0  0  0  0  0
   -3.1184    1.3789    0.7761 H   0  0  0  0  0  0  0  0  0  0  0  0
   -3.6717    1.0518   -0.8674 H   0  0  0  0  0  0  0  0  0  0  0  0
   -3.5980   -0.2555    0.3148 H   0  0  0  0  0  0  0  0  0  0  0  0
   -1.1990    1.2671   -0.8159 H   0  0  0  0  0  0  0  0  0  0  0  0
   -1.6770   -0.3712   -1.2769 H   0  0  0  0  0  0  0  0  0  0  0  0
   -1.3086   -1.1407    1.0631 H   0  0  0  0  0  0  0  0  0  0  0  0
   -0.8095    0.5162    1.5143 H   0  0  0  0  0  0  0  0  0  0  0  0
    3.1584    1.3644    0.1055 H   0  0  0  0  0  0  0  0  0  0  0  0
    2.6663    0.2956   -1.2479 H   0  0  0  0  0  0  0  0  0  0  0  0
    3.1492   -0.4202    0.3036 H   0  0  0  0  0  0  0  0  0  0  0  0
  1  2  1  0  0  0  0
  2  3  1  0  0  0  0
  3  4  1  0  0  0  0
  4  5  2  0  0  0  0
  4  6  1  0  0  0  0
  6  7  1  0  0  0  0
  1  8  1  0  0  0  0
  1  9  1  0  0  0  0
  1 10  1  0  0  0  0
  2 11  1  0  0  0  0
  2 12  1  0  0  0  0
  3 13  1  0  0  0  0
  3 14  1  0  0  0  0
  7 15  1  0  0  0  0
  7 16  1  0  0  0  0
  7 17  1  0  0  0  0
M  END
