  15
 
 C          0.4496899475        1.3580888662        0.0002335188
 C         -0.2672405106        0.2140094874        0.0001171406
 C          0.4061561208       -1.0894643056        0.0000912377
 O         -0.1224870710       -2.1679330194        0.0000650977
 N          1.7963942959       -0.9687499189        0.0002524489
 C          2.5545848893        0.1733197549        0.0003479696
 O          3.7545920661        0.1898374990        0.0004277059
 N          1.8000966198        1.3444777954        0.0003821938
 C         -1.7686205772        0.2215827261       -0.0001550623
 F         -2.2546360909        1.4780183538        0.0001951739
 F         -2.2847841665       -0.3788548320       -1.0769482222
 F         -2.2852811905       -0.3796713651        1.0759206225
 H         -0.0286697761        2.3279581947        0.0001953769
 H          2.3134842668       -1.8424485314        0.0002717880
 H          2.3276275812        2.2073454786        0.0004755043
          15
        -40.45735286
 C          0.4437010013        1.3578877000       -0.0011412666
 C         -0.2679930832        0.2105092278       -0.0013226124
 C          0.4109410905       -1.0901119816       -0.0006107586
 O         -0.1129594847       -2.1709643567       -0.0007315150
 N          1.8004341254       -0.9633261284        0.0007450936
 C          2.5539028491        0.1817481718        0.0001404301
 O          3.7537876225        0.2034955670        0.0004377551
 N          1.7942599577        1.3494707984       -0.0005492391
 C         -1.7692608587        0.2107007292       -0.0001638865
 F         -2.2618926911        1.4642596531       -0.0025219879
 F         -2.2840299963       -0.3959655045       -1.0740932565
 F         -2.2813779097       -0.3900800779        1.0787080238
 H         -0.0386085883        2.3257297057       -0.0014054100
 H          2.3204839533       -1.8352952090        0.0016176011
 H          2.3181287582        2.2145373902       -0.0007990993
