 15

C      1.162000     1.507000     2.583000
C      0.783000     0.389000     1.952000
C      1.536000    -0.869000     2.231000
O      1.239000    -1.928000     1.686000
N      2.578000    -0.739000     3.141000
C      2.965000     0.433000     3.794000
O      3.902000     0.473000     4.591000
N      2.204000     1.545000     3.468000
C     -0.353000     0.329000     0.982000
F     -0.931000     1.540000     0.836000
F      0.067000    -0.076000    -0.235000
F     -1.305000    -0.534000     1.396000
H      0.661000     2.456000     2.429000
H      3.110000    -1.579000     3.353000
H      2.425000     2.436000     3.902000
