 xtb: 6.7.1 (edcfbbe)
          04112511593D

 22 22  0     0  0            999 V2000
   -4.2734    0.8043    0.0144 C   0  0  0  0  0  0  0  0  0  0  0  0
   -3.4687   -0.3641   -0.0011 O   0  0  0  0  0  0  0  0  0  0  0  0
   -2.1244   -0.2384   -0.0016 C   0  0  0  0  0  0  0  0  0  0  0  0
   -1.4011   -1.4380   -0.0209 C   0  0  0  0  0  0  0  0  0  0  0  0
   -0.0281   -1.4201   -0.0235 C   0  0  0  0  0  0  0  0  0  0  0  0
    0.6646   -0.2056   -0.0063 C   0  0  0  0  0  0  0  0  0  0  0  0
   -0.0559    0.9870    0.0130 C   0  0  0  0  0  0  0  0  0  0  0  0
   -1.4358    0.9755    0.0152 C   0  0  0  0  0  0  0  0  0  0  0  0
    2.1338   -0.2277   -0.0102 C   0  0  0  0  0  0  0  0  0  0  0  0
    2.8052   -1.2464   -0.0322 O   0  0  0  0  0  0  0  0  0  0  0  0
    2.6744    0.9932    0.0224 O   0  0  0  0  0  0  0  0  0  0  0  0
    4.0985    1.0997    0.0250 C   0  0  0  0  0  0  0  0  0  0  0  0
   -4.0944    1.3922    0.9173 H   0  0  0  0  0  0  0  0  0  0  0  0
   -5.2988    0.4426    0.0094 H   0  0  0  0  0  0  0  0  0  0  0  0
   -4.0940    1.4162   -0.8723 H   0  0  0  0  0  0  0  0  0  0  0  0
   -1.9503   -2.3654   -0.0337 H   0  0  0  0  0  0  0  0  0  0  0  0
    0.5406   -2.3372   -0.0388 H   0  0  0  0  0  0  0  0  0  0  0  0
    0.4755    1.9251    0.0260 H   0  0  0  0  0  0  0  0  0  0  0  0
   -1.9679    1.9122    0.0300 H   0  0  0  0  0  0  0  0  0  0  0  0
    4.3377    1.9821    0.6123 H   0  0  0  0  0  0  0  0  0  0  0  0
    4.4510    1.2147   -1.0004 H   0  0  0  0  0  0  0  0  0  0  0  0
    4.5391    0.2033    0.4636 H   0  0  0  0  0  0  0  0  0  0  0  0
  1  2  1  0  0  0  0
  2  3  1  0  0  0  0
  3  4  4  0  0  0  0
  4  5  2  0  0  0  0
  5  6  4  0  0  0  0
  6  7  4  0  0  0  0
  3  8  4  0  0  0  0
  7  8  4  0  0  0  0
  6  9  1  0  0  0  0
  9 10  2  0  0  0  0
  9 11  1  0  0  0  0
 11 12  1  0  0  0  0
  1 13  1  0  0  0  0
  1 14  1  0  0  0  0
  1 15  1  0  0  0  0
  4 16  1  0  0  0  0
  5 17  1  0  0  0  0
  7 18  1  0  0  0  0
  8 19  1  0  0  0  0
 12 20  1  0  0  0  0
 12 21  1  0  0  0  0
 12 22  1  0  0  0  0
M  END
