 19

C     -0.002000    -0.666000     0.869000
C      1.244000    -0.443000     1.706000
C      1.275000    -1.349000     2.927000
O      2.463000    -1.090000     3.662000
C      2.550000    -1.909000     4.820000
C      3.834000    -1.587000     5.560000
O      4.940000    -1.843000     4.703000
H     -0.010000    -0.007000    -0.006000
H     -0.043000    -1.700000     0.515000
H     -0.907000    -0.471000     1.453000
H      1.297000     0.605000     2.024000
H      2.139000    -0.618000     1.096000
H      0.415000    -1.159000     3.577000
H      1.271000    -2.404000     2.632000
H      1.674000    -1.710000     5.447000
H      2.544000    -2.956000     4.502000
H      3.943000    -2.212000     6.452000
H      3.859000    -0.531000     5.845000
H      5.740000    -1.627000     5.208000
