 xtb: 6.7.1 (edcfbbe)
          04112512353D

 22 22  0     0  0            999 V2000
   -4.2645    0.2254   -0.1480 C   0  0  0  0  0  0  0  0  0  0  0  0
   -2.7717    0.2940   -0.4447 C   0  0  0  0  0  0  0  0  0  0  0  0
   -1.9339   -0.2072    0.7383 C   0  0  0  0  0  0  0  0  0  0  0  0
   -0.4683   -0.1367    0.4201 C   0  0  0  0  0  0  0  0  0  0  0  0
    0.1786   -1.2017   -0.1957 C   0  0  0  0  0  0  0  0  0  0  0  0
    1.5162   -1.1289   -0.5292 C   0  0  0  0  0  0  0  0  0  0  0  0
    2.2410    0.0262   -0.2526 C   0  0  0  0  0  0  0  0  0  0  0  0
    1.6051    1.0983    0.3606 C   0  0  0  0  0  0  0  0  0  0  0  0
    0.2644    1.0111    0.6891 C   0  0  0  0  0  0  0  0  0  0  0  0
    3.5596    0.0565   -0.5972 O   0  0  0  0  0  0  0  0  0  0  0  0
   -4.5097    0.8381    0.7165 H   0  0  0  0  0  0  0  0  0  0  0  0
   -4.8387    0.5843   -0.9985 H   0  0  0  0  0  0  0  0  0  0  0  0
   -4.5643   -0.7988    0.0622 H   0  0  0  0  0  0  0  0  0  0  0  0
   -2.4881    1.3243   -0.6707 H   0  0  0  0  0  0  0  0  0  0  0  0
   -2.5427   -0.3114   -1.3245 H   0  0  0  0  0  0  0  0  0  0  0  0
   -2.2154   -1.2380    0.9619 H   0  0  0  0  0  0  0  0  0  0  0  0
   -2.1539    0.4052    1.6150 H   0  0  0  0  0  0  0  0  0  0  0  0
   -0.3718   -2.1049   -0.4147 H   0  0  0  0  0  0  0  0  0  0  0  0
    2.0210   -1.9557   -1.0042 H   0  0  0  0  0  0  0  0  0  0  0  0
    2.1571    2.0006    0.5821 H   0  0  0  0  0  0  0  0  0  0  0  0
   -0.2178    1.8517    1.1664 H   0  0  0  0  0  0  0  0  0  0  0  0
    3.9526    0.9085   -0.3556 H   0  0  0  0  0  0  0  0  0  0  0  0
  1  2  1  0  0  0  0
  2  3  1  0  0  0  0
  3  4  1  0  0  0  0
  4  5  4  0  0  0  0
  5  6  4  0  0  0  0
  6  7  4  0  0  0  0
  7  8  4  0  0  0  0
  4  9  4  0  0  0  0
  8  9  4  0  0  0  0
  7 10  1  0  0  0  0
  1 11  1  0  0  0  0
  1 12  1  0  0  0  0
  1 13  1  0  0  0  0
  2 14  1  0  0  0  0
  2 15  1  0  0  0  0
  3 16  1  0  0  0  0
  3 17  1  0  0  0  0
  5 18  1  0  0  0  0
  6 19  1  0  0  0  0
  8 20  1  0  0  0  0
  9 21  1  0  0  0  0
 10 22  1  0  0  0  0
M  END
