 xtb: 6.7.1 (edcfbbe)
          04112512013D

 14 13  0     0  0            999 V2000
    2.0394   -0.3381    0.5262 C   0  0  0  0  0  0  0  0  0  0  0  0
    1.3082    0.1975   -0.5591 O   0  0  0  0  0  0  0  0  0  0  0  0
    0.0058    0.6409   -0.2338 C   0  0  0  0  0  0  0  0  0  0  0  0
   -0.9933   -0.4964    0.0617 C   0  0  0  0  0  0  0  0  0  0  0  0
   -2.3725   -0.0555    0.1664 N   0  0  0  0  0  0  0  0  0  0  0  0
    1.6260   -1.2944    0.8578 H   0  0  0  0  0  0  0  0  0  0  0  0
    2.0542    0.3628    1.3675 H   0  0  0  0  0  0  0  0  0  0  0  0
    3.0508   -0.4888    0.1565 H   0  0  0  0  0  0  0  0  0  0  0  0
    0.0483    1.3327    0.6221 H   0  0  0  0  0  0  0  0  0  0  0  0
   -0.3243    1.1945   -1.1183 H   0  0  0  0  0  0  0  0  0  0  0  0
   -0.9274   -1.2348   -0.7417 H   0  0  0  0  0  0  0  0  0  0  0  0
   -0.7314   -0.9872    1.0023 H   0  0  0  0  0  0  0  0  0  0  0  0
   -2.6597    0.3823   -0.7025 H   0  0  0  0  0  0  0  0  0  0  0  0
   -2.4542    0.6415    0.8990 H   0  0  0  0  0  0  0  0  0  0  0  0
  1  2  1  0  0  0  0
  2  3  1  0  0  0  0
  3  4  1  0  0  0  0
  4  5  1  0  0  0  0
  1  6  1  0  0  0  0
  1  7  1  0  0  0  0
  1  8  1  0  0  0  0
  3  9  1  0  0  0  0
  3 10  1  0  0  0  0
  4 11  1  0  0  0  0
  4 12  1  0  0  0  0
  5 13  1  0  0  0  0
  5 14  1  0  0  0  0
M  END
