  14
 
 C          0.5770000000        0.5050000000       -0.0200000000
 C         -0.6110000000       -0.4630000000        0.0320000000
 C         -0.7920000000       -1.1170000000        1.4000000000
 Cl        -2.1760000000       -2.2330000000        1.4270000000
 C          0.7580000000        1.1590000000       -1.3870000000
 Cl         2.1420000000        2.2750000000       -1.4150000000
 H          1.5030000000       -0.0070000000        0.2640000000
 H          0.4170000000        1.3010000000        0.7190000000
 H         -0.5050000000       -1.2420000000       -0.7320000000
 H         -1.5280000000        0.0890000000       -0.2050000000
 H          0.1010000000       -1.6780000000        1.6920000000
 H         -0.9780000000       -0.3520000000        2.1590000000
 H          0.9150000000        0.4080000000       -2.1670000000
 H         -0.1320000000        1.7400000000       -1.6470000000
