 xtb: 6.7.1 (edcfbbe)
          04112511153D

 29 28  0     0  0            999 V2000
   -2.9753   -1.1269   -0.4735 C   0  0  0  0  0  0  0  0  0  0  0  0
   -1.8064   -0.3877    0.1796 C   0  0  0  0  0  0  0  0  0  0  0  0
   -2.3404    0.7096    1.0971 C   0  0  0  0  0  0  0  0  0  0  0  0
   -0.8945    0.1730   -0.9185 C   0  0  0  0  0  0  0  0  0  0  0  0
    0.3698    0.9243   -0.4840 C   0  0  0  0  0  0  0  0  0  0  0  0
    1.5896    0.1188    0.0116 C   0  0  0  0  0  0  0  0  0  0  0  0
    1.9320   -1.0230   -0.9482 C   0  0  0  0  0  0  0  0  0  0  0  0
    2.7773    1.0910    0.0593 C   0  0  0  0  0  0  0  0  0  0  0  0
    1.3867   -0.4452    1.4201 C   0  0  0  0  0  0  0  0  0  0  0  0
   -3.6262   -1.5578    0.2839 H   0  0  0  0  0  0  0  0  0  0  0  0
   -2.6151   -1.9304   -1.1122 H   0  0  0  0  0  0  0  0  0  0  0  0
   -3.5636   -0.4433   -1.0821 H   0  0  0  0  0  0  0  0  0  0  0  0
   -1.2525   -1.1083    0.7859 H   0  0  0  0  0  0  0  0  0  0  0  0
   -1.5377    1.1769    1.6606 H   0  0  0  0  0  0  0  0  0  0  0  0
   -2.8475    1.4763    0.5148 H   0  0  0  0  0  0  0  0  0  0  0  0
   -3.0504    0.2926    1.8078 H   0  0  0  0  0  0  0  0  0  0  0  0
   -0.6150   -0.6412   -1.5885 H   0  0  0  0  0  0  0  0  0  0  0  0
   -1.4945    0.8745   -1.5064 H   0  0  0  0  0  0  0  0  0  0  0  0
    0.1087    1.6572    0.2810 H   0  0  0  0  0  0  0  0  0  0  0  0
    0.7041    1.4888   -1.3593 H   0  0  0  0  0  0  0  0  0  0  0  0
    2.0157   -0.6540   -1.9680 H   0  0  0  0  0  0  0  0  0  0  0  0
    2.8822   -1.4724   -0.6677 H   0  0  0  0  0  0  0  0  0  0  0  0
    1.1726   -1.8000   -0.9194 H   0  0  0  0  0  0  0  0  0  0  0  0
    3.6670    0.5895    0.4337 H   0  0  0  0  0  0  0  0  0  0  0  0
    2.9980    1.4798   -0.9323 H   0  0  0  0  0  0  0  0  0  0  0  0
    2.5573    1.9305    0.7152 H   0  0  0  0  0  0  0  0  0  0  0  0
    1.0566    0.3335    2.1038 H   0  0  0  0  0  0  0  0  0  0  0  0
    2.3241   -0.8518    1.7948 H   0  0  0  0  0  0  0  0  0  0  0  0
    0.6533   -1.2453    1.4262 H   0  0  0  0  0  0  0  0  0  0  0  0
  1  2  1  0  0  0  0
  2  3  1  0  0  0  0
  2  4  1  0  0  0  0
  4  5  1  0  0  0  0
  5  6  1  0  0  0  0
  6  7  1  0  0  0  0
  6  8  1  0  0  0  0
  6  9  1  0  0  0  0
  1 10  1  0  0  0  0
  1 11  1  0  0  0  0
  1 12  1  0  0  0  0
  2 13  1  0  0  0  0
  3 14  1  0  0  0  0
  3 15  1  0  0  0  0
  3 16  1  0  0  0  0
  4 17  1  0  0  0  0
  4 18  1  0  0  0  0
  5 19  1  0  0  0  0
  5 20  1  0  0  0  0
  7 21  1  0  0  0  0
  7 22  1  0  0  0  0
  7 23  1  0  0  0  0
  8 24  1  0  0  0  0
  8 25  1  0  0  0  0
  8 26  1  0  0  0  0
  9 27  1  0  0  0  0
  9 28  1  0  0  0  0
  9 29  1  0  0  0  0
M  END
