 xtb: 6.7.1 (edcfbbe)
          04112512523D

 21 20  0     0  0            999 V2000
    2.0922   -0.6987   -0.7770 C   0  0  0  0  0  0  0  0  0  0  0  0
    1.4750   -0.4728    0.5984 C   0  0  0  0  0  0  0  0  0  0  0  0
    0.1989    0.3803    0.5654 C   0  0  0  0  0  0  0  0  0  0  0  0
   -0.1898    0.4346    1.5975 H   0  0  0  0  0  0  0  0  0  0  0  0
   -0.9198   -0.1824   -0.3359 C   0  0  0  0  0  0  0  0  0  0  0  0
   -1.2864   -1.6100    0.0647 C   0  0  0  0  0  0  0  0  0  0  0  0
   -2.1671    0.7020   -0.2605 C   0  0  0  0  0  0  0  0  0  0  0  0
    0.6016    1.6791    0.1566 O   0  0  0  0  0  0  0  0  0  0  0  0
    3.0695   -1.1630   -0.6726 H   0  0  0  0  0  0  0  0  0  0  0  0
    2.2124    0.2551   -1.2843 H   0  0  0  0  0  0  0  0  0  0  0  0
    1.4693   -1.3458   -1.3885 H   0  0  0  0  0  0  0  0  0  0  0  0
    1.2607   -1.4248    1.0826 H   0  0  0  0  0  0  0  0  0  0  0  0
    2.1926    0.0671    1.2199 H   0  0  0  0  0  0  0  0  0  0  0  0
   -0.5565   -0.1761   -1.3678 H   0  0  0  0  0  0  0  0  0  0  0  0
   -1.5552   -1.6481    1.1183 H   0  0  0  0  0  0  0  0  0  0  0  0
   -2.1385   -1.9497   -0.5191 H   0  0  0  0  0  0  0  0  0  0  0  0
   -0.4639   -2.2969   -0.1086 H   0  0  0  0  0  0  0  0  0  0  0  0
   -1.9750    1.6957   -0.6576 H   0  0  0  0  0  0  0  0  0  0  0  0
   -2.5089    0.7907    0.7693 H   0  0  0  0  0  0  0  0  0  0  0  0
   -2.9681    0.2614   -0.8489 H   0  0  0  0  0  0  0  0  0  0  0  0
   -0.1432    2.2864    0.2469 H   0  0  0  0  0  0  0  0  0  0  0  0
  1  2  1  0  0  0  0
  2  3  1  0  0  0  0
  3  4  1  0  0  0  0
  3  5  1  0  0  0  0
  5  6  1  0  0  0  0
  5  7  1  0  0  0  0
  3  8  1  0  0  0  0
  1  9  1  0  0  0  0
  1 10  1  0  0  0  0
  1 11  1  0  0  0  0
  2 12  1  0  0  0  0
  2 13  1  0  0  0  0
  5 14  1  0  0  0  0
  6 15  1  0  0  0  0
  6 16  1  0  0  0  0
  6 17  1  0  0  0  0
  7 18  1  0  0  0  0
  7 19  1  0  0  0  0
  7 20  1  0  0  0  0
  8 21  1  0  0  0  0
M  END
