20
 xtb: 6.7.1 (edcfbbe)
C           -2.11167654189134       -0.56044562234500        0.67229321468691
C           -1.38812029996705       -0.35235282302815       -0.65775351156823
C            0.03117404216579        0.23252972876209       -0.54692809398606
C            0.01777536437672        1.63735749352328        0.06224574373021
C            0.97722402978623       -0.70920254727064        0.21176243791044
C            2.44735922639852       -0.30138085116348        0.13898845020842
H           -1.58224945913084       -1.27037450576372        1.31588562970468
H           -2.22013921656633        0.37823258109120        1.22544795683628
H           -3.11735563071085       -0.95916092285387        0.50319187906605
H           -1.98905241464442        0.31434594470690       -1.29007039045358
H           -1.32921379413501       -1.31266183477421       -1.18682136009331
H            0.41536780014504        0.31909741625230       -1.57448856900804
H           -0.71864431911267        2.27435872107490       -0.44071860058441
H            0.99289745636766        2.12528953488850       -0.03003923663609
H           -0.23619549821915        1.60662327834493        1.12803106324111
H            0.67047703151249       -0.76268794370843        1.26445546213055
H            0.86498146633429       -1.72221351242001       -0.19766242091628
H            2.62681343745875        0.65828017323755        0.63367028520697
H            2.77772849690473       -0.20814249374449       -0.90206962897723
H            3.08591270952032       -1.04546462029546        0.62633052608423
