 xtb: 6.7.1 (edcfbbe)
          04112511203D

 21 20  0     0  0            999 V2000
   -2.5952   -0.3498   -0.6942 C   0  0  0  0  0  0  0  0  0  0  0  0
   -1.7395    0.0593    0.5010 C   0  0  0  0  0  0  0  0  0  0  0  0
   -0.4899    0.8587    0.1021 C   0  0  0  0  0  0  0  0  0  0  0  0
    0.8310    0.0635    0.0293 C   0  0  0  0  0  0  0  0  0  0  0  0
    1.9350    0.9841   -0.5009 C   0  0  0  0  0  0  0  0  0  0  0  0
    0.7216   -1.1727   -0.8688 C   0  0  0  0  0  0  0  0  0  0  0  0
    1.2513   -0.3186    1.3379 O   0  0  0  0  0  0  0  0  0  0  0  0
   -3.4674   -0.9068   -0.3588 H   0  0  0  0  0  0  0  0  0  0  0  0
   -2.0363   -0.9723   -1.3865 H   0  0  0  0  0  0  0  0  0  0  0  0
   -2.9397    0.5324   -1.2291 H   0  0  0  0  0  0  0  0  0  0  0  0
   -2.3523    0.6720    1.1653 H   0  0  0  0  0  0  0  0  0  0  0  0
   -1.4579   -0.8328    1.0644 H   0  0  0  0  0  0  0  0  0  0  0  0
   -0.6601    1.3289   -0.8669 H   0  0  0  0  0  0  0  0  0  0  0  0
   -0.3257    1.6564    0.8302 H   0  0  0  0  0  0  0  0  0  0  0  0
    2.8860    0.4586   -0.4801 H   0  0  0  0  0  0  0  0  0  0  0  0
    2.0179    1.8636    0.1320 H   0  0  0  0  0  0  0  0  0  0  0  0
    1.7172    1.2923   -1.5184 H   0  0  0  0  0  0  0  0  0  0  0  0
   -0.0167   -1.8719   -0.4852 H   0  0  0  0  0  0  0  0  0  0  0  0
    1.6839   -1.6785   -0.9035 H   0  0  0  0  0  0  0  0  0  0  0  0
    0.4436   -0.8789   -1.8765 H   0  0  0  0  0  0  0  0  0  0  0  0
    0.5779   -0.8870    1.7341 H   0  0  0  0  0  0  0  0  0  0  0  0
  1  2  1  0  0  0  0
  2  3  1  0  0  0  0
  3  4  1  0  0  0  0
  4  5  1  0  0  0  0
  4  6  1  0  0  0  0
  4  7  1  0  0  0  0
  1  8  1  0  0  0  0
  1  9  1  0  0  0  0
  1 10  1  0  0  0  0
  2 11  1  0  0  0  0
  2 12  1  0  0  0  0
  3 13  1  0  0  0  0
  3 14  1  0  0  0  0
  5 15  1  0  0  0  0
  5 16  1  0  0  0  0
  5 17  1  0  0  0  0
  6 18  1  0  0  0  0
  6 19  1  0  0  0  0
  6 20  1  0  0  0  0
  7 21  1  0  0  0  0
M  END
