 xtb: 6.7.1 (edcfbbe)
          04112511553D

 24 24  0     0  0            999 V2000
   -2.7011   -1.1120   -0.0038 C   0  0  0  0  0  0  0  0  0  0  0  0
   -2.3771    0.3707   -0.1430 C   0  0  0  0  0  0  0  0  0  0  0  0
   -0.9118    0.6544   -0.4807 C   0  0  0  0  0  0  0  0  0  0  0  0
    0.0698    0.2468    0.6286 C   0  0  0  0  0  0  0  0  0  0  0  0
    0.7288   -1.1138    0.3674 C   0  0  0  0  0  0  0  0  0  0  0  0
    1.9352   -0.8214   -0.5423 C   0  0  0  0  0  0  0  0  0  0  0  0
    2.1671    0.6974   -0.4678 C   0  0  0  0  0  0  0  0  0  0  0  0
    1.2878    1.1734    0.6878 C   0  0  0  0  0  0  0  0  0  0  0  0
   -3.7656   -1.2484    0.1737 H   0  0  0  0  0  0  0  0  0  0  0  0
   -2.4358   -1.6471   -0.9131 H   0  0  0  0  0  0  0  0  0  0  0  0
   -2.1588   -1.5510    0.8294 H   0  0  0  0  0  0  0  0  0  0  0  0
   -3.0007    0.7942   -0.9343 H   0  0  0  0  0  0  0  0  0  0  0  0
   -2.6346    0.8838    0.7869 H   0  0  0  0  0  0  0  0  0  0  0  0
   -0.6522    0.1426   -1.4086 H   0  0  0  0  0  0  0  0  0  0  0  0
   -0.8171    1.7277   -0.6621 H   0  0  0  0  0  0  0  0  0  0  0  0
   -0.4609    0.2512    1.5846 H   0  0  0  0  0  0  0  0  0  0  0  0
    1.0705   -1.5358    1.3139 H   0  0  0  0  0  0  0  0  0  0  0  0
    0.0442   -1.8252   -0.0883 H   0  0  0  0  0  0  0  0  0  0  0  0
    2.8127   -1.3706   -0.2025 H   0  0  0  0  0  0  0  0  0  0  0  0
    1.7350   -1.1295   -1.5681 H   0  0  0  0  0  0  0  0  0  0  0  0
    3.2160    0.9447   -0.3098 H   0  0  0  0  0  0  0  0  0  0  0  0
    1.8468    1.1749   -1.3940 H   0  0  0  0  0  0  0  0  0  0  0  0
    1.8084    1.0257    1.6358 H   0  0  0  0  0  0  0  0  0  0  0  0
    1.0231    2.2267    0.6047 H   0  0  0  0  0  0  0  0  0  0  0  0
  1  2  1  0  0  0  0
  2  3  1  0  0  0  0
  3  4  1  0  0  0  0
  4  5  1  0  0  0  0
  5  6  1  0  0  0  0
  6  7  1  0  0  0  0
  4  8  1  0  0  0  0
  7  8  1  0  0  0  0
  1  9  1  0  0  0  0
  1 10  1  0  0  0  0
  1 11  1  0  0  0  0
  2 12  1  0  0  0  0
  2 13  1  0  0  0  0
  3 14  1  0  0  0  0
  3 15  1  0  0  0  0
  4 16  1  0  0  0  0
  5 17  1  0  0  0  0
  5 18  1  0  0  0  0
  6 19  1  0  0  0  0
  6 20  1  0  0  0  0
  7 21  1  0  0  0  0
  7 22  1  0  0  0  0
  8 23  1  0  0  0  0
  8 24  1  0  0  0  0
M  END
