23
 xtb: 6.7.1 (edcfbbe)
C           -0.37911543832809        2.38832216354590       -0.05134682328969
N           -0.12936543190712        1.07410035171581       -0.64697198533887
C           -1.31162130681630        0.30592014913483       -0.97855424012999
C           -2.01937986283303       -0.31188002889823        0.21747527195940
F           -2.50200659290284        0.62169918547110        1.07696419551426
F           -3.07898165633902       -1.05852263048445       -0.18644748291693
F           -1.21594062211432       -1.12317973159063        0.94802290814807
C            1.06499497248570        0.41989345163303       -0.32632275329040
C            1.34425407655230       -0.88800445031323       -0.77546848033202
C            2.56647265147489       -1.48752885919213       -0.50347283738546
C            3.55381588328507       -0.82273195163424        0.22297599283023
C            3.28508966986097        0.46426215408303        0.67642924523973
C            2.06450845042171        1.08067038741102        0.41562444368710
H           -0.41141994935539        2.36328929958200        1.04690180500559
H           -1.33662999893119        2.76307044220372       -0.41704278588914
H            0.39503865926884        3.09758288649521       -0.35933668358807
H           -2.04198543161667        0.95530568682529       -1.47037700013038
H           -1.08854923107086       -0.50383617921587       -1.67565758243777
H            0.61224260368107       -1.45334151581153       -1.33855524805276
H            2.74454372985150       -2.49565688016684       -0.86640847355188
H            4.50475675937398       -1.30017552439561        0.43386311577080
H            4.02992921918656        1.00607480138956        1.25215580585783
H            1.89826528847963        2.07948314150348        0.79750439855564
