 xtb: 6.7.1 (edcfbbe)
          04112512223D

 16 15  0     0  0            999 V2000
   -2.4552    0.1209   -0.2587 C   0  0  0  0  0  0  0  0  0  0  0  0
   -1.1930   -0.2393    0.5119 C   0  0  0  0  0  0  0  0  0  0  0  0
   -0.0096    0.1685   -0.2233 N   0  0  0  0  0  0  0  0  0  0  0  0
    1.2299   -0.2046    0.4339 C   0  0  0  0  0  0  0  0  0  0  0  0
    2.4290    0.1896   -0.4165 C   0  0  0  0  0  0  0  0  0  0  0  0
   -2.4612    1.1842   -0.4790 H   0  0  0  0  0  0  0  0  0  0  0  0
   -2.4986   -0.4284   -1.1965 H   0  0  0  0  0  0  0  0  0  0  0  0
   -3.3345   -0.1250    0.3298 H   0  0  0  0  0  0  0  0  0  0  0  0
   -1.1887   -1.3240    0.7344 H   0  0  0  0  0  0  0  0  0  0  0  0
   -1.1795    0.2902    1.4703 H   0  0  0  0  0  0  0  0  0  0  0  0
   -0.0336   -0.2478   -1.1507 H   0  0  0  0  0  0  0  0  0  0  0  0
    1.2632    0.3259    1.3913 H   0  0  0  0  0  0  0  0  0  0  0  0
    1.2704   -1.2887    0.6560 H   0  0  0  0  0  0  0  0  0  0  0  0
    2.3893    1.2518   -0.6387 H   0  0  0  0  0  0  0  0  0  0  0  0
    3.3510   -0.0282    0.1149 H   0  0  0  0  0  0  0  0  0  0  0  0
    2.4286   -0.3616   -1.3541 H   0  0  0  0  0  0  0  0  0  0  0  0
  1  2  1  0  0  0  0
  2  3  1  0  0  0  0
  3  4  1  0  0  0  0
  4  5  1  0  0  0  0
  1  6  1  0  0  0  0
  1  7  1  0  0  0  0
  1  8  1  0  0  0  0
  2  9  1  0  0  0  0
  2 10  1  0  0  0  0
  3 11  1  0  0  0  0
  4 12  1  0  0  0  0
  4 13  1  0  0  0  0
  5 14  1  0  0  0  0
  5 15  1  0  0  0  0
  5 16  1  0  0  0  0
M  END
