 xtb: 6.7.1 (edcfbbe)
          04112512103D

 18 17  0     0  0            999 V2000
    1.4783   -1.4511   -0.0445 C   0  0  0  0  0  0  0  0  0  0  0  0
    1.2061   -0.0267    0.4355 C   0  0  0  0  0  0  0  0  0  0  0  0
    1.7422    0.9881   -0.5732 C   0  0  0  0  0  0  0  0  0  0  0  0
   -0.2783    0.2040    0.7523 C   0  0  0  0  0  0  0  0  0  0  0  0
   -1.2275    0.0428   -0.4362 C   0  0  0  0  0  0  0  0  0  0  0  0
   -2.5839    0.1835   -0.0583 O   0  0  0  0  0  0  0  0  0  0  0  0
    2.5499   -1.6241   -0.1098 H   0  0  0  0  0  0  0  0  0  0  0  0
    1.0488   -1.6172   -1.0290 H   0  0  0  0  0  0  0  0  0  0  0  0
    1.0548   -2.1766    0.6458 H   0  0  0  0  0  0  0  0  0  0  0  0
    1.7478    0.1185    1.3780 H   0  0  0  0  0  0  0  0  0  0  0  0
    1.5230    2.0035   -0.2520 H   0  0  0  0  0  0  0  0  0  0  0  0
    1.3006    0.8294   -1.5536 H   0  0  0  0  0  0  0  0  0  0  0  0
    2.8204    0.8845   -0.6681 H   0  0  0  0  0  0  0  0  0  0  0  0
   -0.3942    1.2138    1.1556 H   0  0  0  0  0  0  0  0  0  0  0  0
   -0.5902   -0.5002    1.5276 H   0  0  0  0  0  0  0  0  0  0  0  0
   -0.9866    0.7665   -1.2248 H   0  0  0  0  0  0  0  0  0  0  0  0
   -1.1569   -0.9638   -0.8523 H   0  0  0  0  0  0  0  0  0  0  0  0
   -2.7123    1.0596    0.3309 H   0  0  0  0  0  0  0  0  0  0  0  0
  1  2  1  0  0  0  0
  2  3  1  0  0  0  0
  2  4  1  0  0  0  0
  4  5  1  0  0  0  0
  5  6  1  0  0  0  0
  1  7  1  0  0  0  0
  1  8  1  0  0  0  0
  1  9  1  0  0  0  0
  2 10  1  0  0  0  0
  3 11  1  0  0  0  0
  3 12  1  0  0  0  0
  3 13  1  0  0  0  0
  4 14  1  0  0  0  0
  4 15  1  0  0  0  0
  5 16  1  0  0  0  0
  5 17  1  0  0  0  0
  6 18  1  0  0  0  0
M  END
