21
 xtb: 6.7.1 (edcfbbe)
C            1.87727968804564        0.78320714863942       -1.00038520079458
C            1.45862346857395       -0.25473298904306        0.02590170107712
H            2.21760290078465       -1.05207364745452        0.00987222464291
C            0.09910068671092       -0.92720521660450       -0.22878026478172
C           -1.17449848898427       -0.20882008514587        0.24498717530066
C           -1.39233927358011        1.16721731947655       -0.38610721046506
C           -2.38011347805467       -1.10867410695980       -0.04185516542512
O            1.50960219355372        0.38834635423047        1.32421554746843
H            2.88237761301066        1.15258841070196       -0.77195276701156
H            1.90304027004092        0.32766373606678       -1.99467673423828
H            1.19616704830756        1.63633150867698       -1.03055510258517
H            0.02045685432634       -1.12648678218593       -1.30665294842965
H            0.11668835185969       -1.90839346463362        0.26384371516653
H           -1.10489614901258       -0.07729466342942        1.33335936597402
H           -1.33600226735051        1.10942585624913       -1.48000693117068
H           -0.65734073925105        1.90027453317234       -0.04407608414230
H           -2.38464576162688        1.55074303669243       -0.12267755186477
H           -3.30240038040702       -0.66609850862148        0.34966166761240
H           -2.50763791949105       -1.24814468236218       -1.12261210254873
H           -2.25928223229890       -2.09824578078336        0.41244246994110
H            1.21523832781907       -0.25851331185853        1.97900837311855
