17
 xtb: 6.7.1 (edcfbbe)
C           -2.20527658412382        0.98732010649648        0.86545205152940
C           -1.90519151715554       -0.05764227715212       -0.20653213969320
C           -0.45144967675870       -0.40671582307075       -0.37066000891661
O           -0.04201719837630       -1.52295208210179       -0.65173800853381
O            0.35328025464536        0.65820436757147       -0.21048993601787
C            1.79304935417680        0.43720639623750       -0.35347292863873
C            2.38680731808317       -0.07508710605772        0.93839387667932
H           -3.28694870994273        1.11316868233763        0.96200960732708
H           -1.81184529557649        0.67510427290301        1.83754191456193
H           -1.77265075336779        1.95845954678084        0.61511641234891
H           -2.24508320604453        0.30008510195501       -1.18812919014561
H           -2.43447686515558       -0.99319685755269       -0.01025768615341
H            1.96390291834649       -0.24790662721449       -1.18744679692536
H            2.18542350436782        1.42287361078791       -0.61075510453704
H            2.19491192275120        0.62427039152575        1.75737833589189
H            1.97984249837014       -1.05462629742771        1.20323605065925
H            3.47035363037978       -0.17396606468432        0.81834633294894
