 xtb: 6.7.1 (edcfbbe)
          04112511323D

 21 20  0     0  0            999 V2000
   -2.2690    0.4763    0.7976 C   0  0  0  0  0  0  0  0  0  0  0  0
   -1.7090    0.4786   -0.6201 C   0  0  0  0  0  0  0  0  0  0  0  0
   -0.5463   -0.4965   -0.8214 C   0  0  0  0  0  0  0  0  0  0  0  0
    0.7645   -0.1838   -0.0658 C   0  0  0  0  0  0  0  0  0  0  0  0
    1.2062    1.2680   -0.2584 C   0  0  0  0  0  0  0  0  0  0  0  0
    1.8594   -1.1258   -0.5902 C   0  0  0  0  0  0  0  0  0  0  0  0
    0.6164   -0.3681    1.3395 O   0  0  0  0  0  0  0  0  0  0  0  0
   -1.4993    0.7489    1.5143 H   0  0  0  0  0  0  0  0  0  0  0  0
   -2.6451   -0.5112    1.0566 H   0  0  0  0  0  0  0  0  0  0  0  0
   -3.0887    1.1867    0.8798 H   0  0  0  0  0  0  0  0  0  0  0  0
   -2.5047    0.1939   -1.3138 H   0  0  0  0  0  0  0  0  0  0  0  0
   -1.3926    1.4875   -0.8862 H   0  0  0  0  0  0  0  0  0  0  0  0
   -0.8767   -1.4973   -0.5290 H   0  0  0  0  0  0  0  0  0  0  0  0
   -0.3072   -0.5270   -1.8862 H   0  0  0  0  0  0  0  0  0  0  0  0
    0.5319    1.9353    0.2698 H   0  0  0  0  0  0  0  0  0  0  0  0
    1.2193    1.5229   -1.3134 H   0  0  0  0  0  0  0  0  0  0  0  0
    2.2023    1.4005    0.1557 H   0  0  0  0  0  0  0  0  0  0  0  0
    2.7592   -1.0106    0.0098 H   0  0  0  0  0  0  0  0  0  0  0  0
    2.0965   -0.8915   -1.6237 H   0  0  0  0  0  0  0  0  0  0  0  0
    1.5331   -2.1626   -0.5349 H   0  0  0  0  0  0  0  0  0  0  0  0
    0.4249   -1.2988    1.5139 H   0  0  0  0  0  0  0  0  0  0  0  0
  1  2  1  0  0  0  0
  2  3  1  0  0  0  0
  3  4  1  0  0  0  0
  4  5  1  0  0  0  0
  4  6  1  0  0  0  0
  4  7  1  0  0  0  0
  1  8  1  0  0  0  0
  1  9  1  0  0  0  0
  1 10  1  0  0  0  0
  2 11  1  0  0  0  0
  2 12  1  0  0  0  0
  3 13  1  0  0  0  0
  3 14  1  0  0  0  0
  5 15  1  0  0  0  0
  5 16  1  0  0  0  0
  5 17  1  0  0  0  0
  6 18  1  0  0  0  0
  6 19  1  0  0  0  0
  6 20  1  0  0  0  0
  7 21  1  0  0  0  0
M  END
