14
CONF14
C -1.3626985447 -0.3519719199 -0.4316159510
C -0.0017865554 -0.0581547068 0.2113582576
C 1.1406292362 -0.7687362460 -0.5244984661
O 2.3725037251 -0.5954386095 0.1340120726
O 0.2328729214 1.3361407338 0.2677935685
O -2.4224874903 0.1988024000 0.3132175124
H -1.5380552821 -1.4279025260 -0.4685474649
H -1.3759739300 0.0440958748 -1.4581917355
H -0.0168374188 -0.3838823502 1.2566872779
H 1.2061040340 -0.3878330660 -1.5547630498
H 0.9570829540 -1.8433228694 -0.5587842260
H 2.4550829468 0.3377155344 0.3850890544
H 0.2620059238 1.6887448659 -0.6348974291
H -2.1849826041 1.1067555987 0.5581872589
14
CONF51
C -1.3564000159 -0.4229181944 -0.3784119328
C 0.0044337443 -0.0763740351 0.2521466517
C 1.1430218591 -0.7516682801 -0.5191022401
O 2.3843151905 -0.5763760536 0.1166307347
O 0.2514183240 1.3195760164 0.2137363305
O -2.4222096555 0.2571486136 0.2453566674
H -1.5506369916 -1.4880751509 -0.2435738732
H -1.3266407843 -0.1988510596 -1.4502344246
H 0.0209872255 -0.4280914455 1.2923229410
H 1.1717867541 -0.3394492979 -1.5360473088
H 0.9722998264 -1.8276125642 -0.5712867961
H 2.5295034491 0.3751255242 0.2300647725
H -0.2898847839 1.7572962135 0.8844173872
H -2.4269502322 1.1773529772 -0.0540596051
14
CONF4
C -1.0727226429 -0.6071149893 -0.0783877872
C 0.0204224795 0.2283763955 0.6034324887
C 1.3559136066 -0.5262883452 0.6345230071
O 1.8249983985 -0.8176009646 -0.6580023135
O 0.2238902961 1.4371468047 -0.1020162881
O -2.2511965983 0.1458868687 -0.2592276766
H -1.2579663827 -1.5179578498 0.4988072956
H -0.7343557180 -0.8880429341 -1.0785458099
H -0.2775867290 0.4578223210 1.6394441488
H 1.2321729449 -1.4829025441 1.1440939471
H 2.0893774234 0.0814231526 1.1795741771
H 1.8769300101 0.0201189592 -1.1435879421
H -0.6315858889 1.7138580490 -0.4679759550
H -2.7035718737 0.2500963140 0.5895118852
14
CONF45
C -1.0941109997 -0.5667812852 -0.1724128622
C -0.0004141575 0.2034563098 0.5796397150
C 1.3082039327 -0.6071594712 0.6328149823
O 1.8688388854 -0.7914625590 -0.6499906501
O 0.1959667351 1.4705953672 -0.0151918567
O -2.3206256768 0.1260347585 -0.1706955655
H -1.2795465662 -1.5261848500 0.3125464844
H -0.7594779796 -0.7520861032 -1.2036165075
H -0.3358656241 0.4097651163 1.6002448259
H 1.0918199429 -1.6019172767 1.0271077797
H 2.0160088128 -0.1077053862 1.3004220967
H 2.4217991887 -0.0297331198 -0.8711404401
H 0.5004315678 1.3323015775 -0.9257316978
H -2.1406663037 1.0592489184 -0.3648962568
14
CONF24
C -1.0705375746 -0.5664519546 -0.1854066790
C 0.0058122909 0.1912851498 0.6020679308
C 1.3266929271 -0.5941011110 0.6257261747
O 1.8379038423 -0.8007065458 -0.6690050807
O 0.1858856497 1.4396596489 -0.0458619755
O -2.2995628131 0.1172809134 -0.1853305290
H -1.2547477241 -1.5346174707 0.2819608167
H -0.7160335403 -0.7266393771 -1.2110450665
H -0.3484841704 0.3396076641 1.6303692387
H 1.1669496994 -1.5818403937 1.0599196899
H 2.0625205427 -0.0531154609 1.2379671207
H 1.8161633108 0.0496794892 -1.1359802977
H 0.6717484296 2.0425419127 0.5323781079
H -2.1423037929 1.0103159827 -0.5276169663
14
CONF20
C -1.4344394718 0.0154961097 0.6500207907
C 0.0687961201 0.3069549462 0.5163770188
C 0.8538688966 -0.9092896381 -0.0054146559
O 2.2413942612 -0.6659245831 -0.0008242998
O 0.2845973936 1.4151804491 -0.3337821889
O -2.0372264101 -0.1953325304 -0.6085202007
H -1.9248449878 0.8980235447 1.0680579224
H -1.5933780818 -0.8317429861 1.3226137542
H 0.4722692384 0.5890723363 1.4946000552
H 0.5264824762 -1.1518409579 -1.0261683962
H 0.6928722686 -1.7723405431 0.6433436338
H 2.3925994092 0.2049004772 -0.3998866354
H -0.3602760110 1.3614382169 -1.0575459248
H -1.8657080364 -1.0972989282 -0.9088327914
14
CONF19
C -1.1041701143 -0.5402867848 -0.2156789908
C -0.0018323376 0.1873208320 0.5736390965
C 1.3064372171 -0.6180080760 0.6253154360
O 1.8991791834 -0.7307491377 -0.6505762161
O 0.2239133131 1.4642741691 0.0114595452
O -2.3294577684 0.1507874627 -0.1411033901
H -1.2851897154 -1.5298877141 0.2078911240
H -0.8024510382 -0.6409391548 -1.2676690168
H -0.3612601504 0.3618886044 1.5933735442
H 1.1253047281 -1.5972964769 1.0763591240
H 2.0274883198 -0.0722994662 1.2389548720
H 1.4712564437 -1.4362949688 -1.1529194358
H 0.8650381251 1.3603183614 -0.7102056727
H -2.1528800743 1.0877377998 -0.3178942550
14
CONF6
C -1.3533293058 -0.3945332918 -0.4061279633
C 0.0056238088 -0.0730791181 0.2291436074
C 1.1536741220 -0.7414675214 -0.5342378317
O 2.3883668661 -0.5646615972 0.1145530752
O 0.2381854887 1.3228253768 0.2217402393
O -2.3977582417 0.2788227030 0.2592290396
H -1.5152776585 -1.4767224233 -0.4182178333
H -1.3663692338 -0.0227056768 -1.4333680395
H 0.0215457473 -0.4322082426 1.2718995272
H 1.1912985702 -0.3269196682 -1.5500072323
H 0.9894413017 -1.8187039917 -0.5903888398
H 2.5202642056 0.3854739672 0.2501045275
H -0.6094471285 1.7696175285 0.3696048874
H -2.5510869997 -0.1307566233 1.1224371277
14
CONF12
C -1.2938272030 0.0197843497 0.5898569871
C 0.0918311115 0.6839269317 0.6420123907
C 1.2136596344 -0.3751797794 0.6834057630
O 1.2261092360 -1.1893144954 -0.4703866793
O 0.2611553652 1.5334104278 -0.4751954392
O -1.5159983260 -0.5749679310 -0.6677986594
H -2.0727484099 0.7768911912 0.7063785657
H -1.3854433395 -0.7123705006 1.4000348741
H 0.1719535635 1.3040902810 1.5410062735
H 1.0525376749 -1.0427064626 1.5317561376
H 2.1771012916 0.1305704149 0.8075541070
H 1.5223327769 -0.6494856398 -1.2175185882
H -0.3173440988 1.1977762829 -1.1816121666
H -0.8312728360 -1.2548700666 -0.8004626930
14
CONF26
C -1.3634810396 -0.3619040421 -0.4244857005
C -0.0121797662 -0.0619781180 0.2460309278
C 1.1184382897 -0.8427651620 -0.4375247527
O 2.3938237617 -0.5087579689 0.0521786222
O 0.2266658046 1.3303978842 0.2560029888
O -2.4229127078 0.2690788440 0.2533841532
H -1.5716659214 -1.4323595497 -0.3984151670
H -1.3345265404 -0.0302493560 -1.4723920536
H -0.0789338572 -0.3411942839 1.3041890516
H 1.1439084484 -0.5973807993 -1.5028543194
H 0.9245856589 -1.9175945930 -0.3327731280
H 2.4364330665 -0.6906769061 1.0011302408
H 0.5649001463 1.6056534373 -0.6080641587
H -2.1558167422 1.1839447618 0.4353264570
14
CONF17
C -1.0621111937 -0.1348076940 0.7215116416
C 0.2283463777 0.6134953187 0.3431804067
C 1.2007141710 -0.2983078038 -0.4357204218
O 1.5832756485 -1.4388110989 0.2951585127
O -0.0673932273 1.7672650715 -0.4105350638
O -1.8471369587 -0.4159669725 -0.4172087433
H -1.6751792555 0.5095312359 1.3557147788
H -0.8080073535 -1.0464229732 1.2697242571
H 0.7175017238 0.9613795171 1.2603446439
H 2.0700140692 0.2977760648 -0.7376093619
H 0.7155199523 -0.6677514645 -1.3426449311
H 2.1575007469 -1.1761504185 1.0269923073
H -0.8059068701 1.5506577122 -1.0029412717
H -1.4859309566 -1.1893207824 -0.8705600759
14
CONF74
C -1.0558378367 -0.5260109244 -0.2416384703
C 0.0102888652 0.2205301754 0.5731297812
C 1.3240780499 -0.5812930368 0.6077320020
O 1.8410211719 -0.8007766496 -0.6822682721
O 0.2245437808 1.4788126933 -0.0372620888
O -2.3300035764 0.0609149622 -0.1641654273
H -1.0861032522 -1.5719139868 0.0881020985
H -0.7804062458 -0.4967138368 -1.2970259607
H -0.3515326522 0.3490905909 1.6029559097
H 1.1553331518 -1.5655914520 1.0468987122
H 2.0612218328 -0.0428829748 1.2209704331
H 1.8253789491 0.0459677632 -1.1552376322
H 0.6885955989 2.0670351942 0.5741036773
H -2.6339422751 0.0522710953 0.7545617043
14
CONF75
C -1.4401337782 0.0376930646 0.6212757562
C 0.0663583699 0.3346463970 0.5100724279
C 0.8184403346 -0.8842038175 -0.0435705180
O 2.2158396884 -0.7425556116 -0.0049039530
O 0.2834685175 1.4192752448 -0.3720729965
O -2.0067882498 -0.2840007697 -0.6255991714
H -1.9507419421 0.9115561742 1.0513314450
H -1.6098434980 -0.8218939059 1.2711968606
H 0.4542771521 0.5693242738 1.5114281147
H 0.5630988099 -1.0105777439 -1.0968243532
H 0.5004575833 -1.7776402238 0.5080815318
H 2.5040920318 -0.6338718361 0.9125271735
H 0.0455036140 2.2500325555 0.0620224203
H -1.7073541019 0.3787368947 -1.2675945676
14
CONF25
C -1.3596159655 -0.4410292696 -0.3332659796
C 0.0077129120 -0.0623971215 0.2510266137
C 1.1384445654 -0.8017072544 -0.4844941873
O 2.3913027687 -0.5309895262 0.0962067646
O 0.2349743629 1.3316492482 0.2151439552
O -2.4155641593 0.3153011365 0.2060832690
H -1.5275840232 -1.5152608250 -0.1870677116
H -1.3716817371 -0.2309463989 -1.4064905784
H 0.0525712949 -0.3272006432 1.3141217940
H 1.1412284760 -0.5073036598 -1.5437756554
H 0.9920874412 -1.8806809098 -0.4181911973
H 2.4501819024 0.4262868578 0.2434869545
H -0.0849065192 1.6875417430 -0.6260349137
H -2.4530239229 0.1856370368 1.1637971545
14
CONF5
C -1.4486161979 0.0758227491 0.6263052924
C 0.0646951572 0.3112518108 0.5460010061
C 0.7952004230 -0.9442766946 0.0595897405
O 2.1672193750 -0.6245215710 -0.0525819616
O 0.2735676464 1.3894862900 -0.3427987829
O -1.9980909277 -0.2397426700 -0.6285881724
H -1.9199621396 0.9785601628 1.0343745164
H -1.6624141173 -0.7693261690 1.2818646586
H 0.4419803847 0.5755343054 1.5454180099
H 0.3810282328 -1.2432378928 -0.9106292651
H 0.6355685899 -1.7514762875 0.7833820733
H 2.6518870040 -1.3934079805 -0.3798031961
H 1.2206033773 1.4292878282 -0.5428779767
H -1.7605037339 0.4767117472 -1.2373154973
14
CONF18
C -1.3502550352 -0.3582162062 -0.4622479533
C -0.0063562568 -0.0784560001 0.2150077797
C 1.1538204043 -0.7284722279 -0.5449023559
O 2.3739791651 -0.5734274691 0.1348454713
O 0.2538914007 1.3102006170 0.2640368365
O -2.3540742454 0.2472771629 0.3256835024
H -1.5009240600 -1.4411851627 -0.5300689337
H -1.3381860902 0.0718517867 -1.4716455180
H -0.0377869546 -0.4812434897 1.2392591561
H 1.2144803570 -0.2812359074 -1.5459467251
H 0.9885395017 -1.8027467621 -0.6381414160
H 2.4920590376 0.3706321146 0.3185340868
H -0.5269901498 1.7472890712 0.6335140730
H -3.2207796665 0.0804477059 -0.0675377060
14
CONF1
C -1.4566473342 0.3593243216 -0.2200806411
C 0.0035043388 0.3835515683 0.2649413884
C 0.8218815959 -0.7264714328 -0.4086076598
O 2.0960832668 -0.8756563307 0.1715672329
O 0.5916039826 1.6499736198 0.0561764693
O -2.1269523644 -0.8296867649 0.1164900957
H -1.4797649430 0.4095473916 -1.3125641700
H -1.9766688636 1.2373864083 0.1836257699
H 0.0378020581 0.2335610053 1.3501691690
H 0.9154946875 -0.5090135616 -1.4828871222
H 0.3089890127 -1.6822316224 -0.2892450544
H 2.5067354802 0.0002981347 0.2296705037
H 0.5463599025 1.8737245030 -0.8847135999
H -2.2375110277 -0.8798500809 1.0762473279
14
CONF2
C -1.0760354098 -0.5696449719 -0.1632402454
C 0.0086163606 0.2190263690 0.5876226232
C 1.3171967827 -0.5746015427 0.6533325443
O 1.7734730335 -0.7627998383 -0.6709039655
O 0.2079994667 1.4723242675 -0.0301913858
O -2.2990869477 0.1280329257 -0.1851807979
H -1.2690505401 -1.5188263137 0.3390407229
H -0.7296490637 -0.7689418013 -1.1866435158
H -0.3418198015 0.4384108687 1.6012532086
H 1.1324626432 -1.5340158294 1.1488135135
H 2.0494433543 -0.0004197231 1.2343368630
H 2.6029257643 -1.2577449238 -0.6595680406
H 0.7295057622 1.3211788176 -0.8343746389
H -2.1085898157 1.0505385340 -0.4168518448
14
CONF70
C -1.3602536595 -0.2918526291 -0.4529497380
C -0.0104699909 -0.0377658749 0.2294766257
C 1.1148255989 -0.7941535013 -0.4953390609
O 2.3709018318 -0.4945170363 0.0681838866
O 0.2579273126 1.3480033618 0.2345535864
O -2.4605907137 0.2091060576 0.2623249020
H -1.4729184505 -1.3712245479 -0.6242956895
H -1.3755239324 0.2267942373 -1.4132557677
H -0.0664665824 -0.3905226592 1.2752073499
H 1.1641117710 -0.4540701783 -1.5322312422
H 0.9162870793 -1.8703991073 -0.4828733615
H 2.4525820077 -0.9238881554 0.9317817098
H 1.2206821449 1.4650456812 0.2836740379
H -2.4599528663 -0.1576509259 1.1580023830
14
CONF46
C -1.0815379647 -0.6187990592 -0.0220589031
C 0.0175832770 0.2479852113 0.6228137599
C 1.3484280010 -0.5154316980 0.6503697542
O 1.7985262757 -0.8396667092 -0.6412904918
O 0.2357767148 1.4372833171 -0.1154662301
O -2.2609695554 0.1118489119 -0.2780746053
H -1.3546610821 -1.4152090017 0.6724347944
H -0.6905386255 -1.0691840198 -0.9401738244
H -0.2693084994 0.4951788354 1.6533101911
H 1.2227336255 -1.4595362490 1.1820238186
H 2.0944052763 0.0969739098 1.1724185380
H 1.8656935607 -0.0134413842 -1.1438506108
H -0.5265124103 2.0207137815 -0.0020598982
H -2.1336683430 0.6435056478 -1.0763965882
14
CONF58
C -1.3612894965 -0.3653486115 -0.4053625503
C 0.0103514656 -0.0467310377 0.2137203483
C 1.1328974708 -0.7573100806 -0.5455888091
O 2.3408032969 -0.5860963048 0.1609577907
O 0.1887327319 1.3516925862 0.2735471270
O -2.4005213413 0.2512479359 0.3152222955
H -1.5559313545 -1.4382628114 -0.3785350906
H -1.3777838932 -0.0253228644 -1.4517695136
H 0.0243709931 -0.3763474411 1.2578363575
H 1.2121271118 -0.3332168893 -1.5564268279
H 0.8762340346 -1.8205007502 -0.6276667390
H 3.0546157941 -1.0457449672 -0.3021549462
H 0.4247642578 1.6857083732 -0.6043955054
H -2.1080973789 1.1475346918 0.5473514517
14
CONF16
C -1.4584741481 0.3600916382 -0.2077995689
C -0.0006370886 0.3835411616 0.2849895485
C 0.8229589802 -0.6966436683 -0.4257281818
O 2.0856574407 -0.8834500346 0.1644118287
O 0.6141721046 1.6258872994 0.0095044073
O -2.1146063695 -0.8487991820 0.0811273577
H -1.4684443068 0.4580348707 -1.2960582219
H -2.0034565319 1.2111228837 0.2224100181
H 0.0287582193 0.1795203893 1.3671152928
H 0.9249109744 -0.4171113441 -1.4819137651
H 0.3017508485 -1.6528534324 -0.3570550886
H 2.5622242687 -0.0410072508 0.1304858055
H 0.1566369369 2.3356609586 0.4804633121
H -2.2113755185 -0.9449740293 1.0393748498
14
CONF41
C -1.4452898116 0.3775550261 -0.2679271120
C -0.0164042503 0.3281201576 0.2967260769
C 0.8330779584 -0.7736128391 -0.3545681416
O 2.1656617390 -0.7275181431 0.1059058883
O 0.5682582906 1.5929473244 0.0697876295
O -2.2361232566 -0.7198591039 0.1160706856
H -1.3988084976 0.4820238786 -1.3573206144
H -1.9311906418 1.2667651239 0.1409269706
H -0.0811460915 0.1425170827 1.3826299491
H 0.8882347229 -0.5979150444 -1.4321132585
H 0.3872076346 -1.7556906896 -0.1682446629
H 2.2015527680 -1.0241511078 1.0261575678
H 1.5326884920 1.4781462377 0.0766095416
H -2.0095845095 -1.4928287333 -0.4180209760
14
CONF72
C -1.3019884262 0.0546196029 0.5461797282
C 0.1001693616 0.6868619882 0.6304546620
C 1.2073907849 -0.3809269839 0.6566340497
O 1.2361763524 -1.2246959048 -0.4653024601
O 0.3206656816 1.5394958532 -0.4764265040
O -1.4876944947 -0.6682422938 -0.6510834377
H -2.0635524761 0.8419704354 0.6305659670
H -1.4414271736 -0.6546947819 1.3635005927
H 0.1739688190 1.2467121498 1.5726795849
H 1.0883301842 -0.9697623594 1.5777257024
H 2.1787560401 0.1191377484 0.6782440703
H 0.3306557011 -1.5420139038 -0.6313093063
H -0.1816498848 2.3579528412 -0.3639995735
H -1.2490781427 -0.0853945048 -1.3895586211
14
CONF44
C -1.1142250581 -0.0777393073 0.7130928117
C 0.2290670646 0.5894791021 0.3664493663
C 1.1379867581 -0.3454376431 -0.4502167774
O 1.6473587875 -1.4143430627 0.3078461397
O 0.0129512098 1.7406230524 -0.4268606316
O -1.8139672019 -0.4930646101 -0.4359027597
H -1.7270397736 0.6236362609 1.2969800291
H -0.9459805749 -0.9702185888 1.3174352709
H 0.7488092262 0.8430568607 1.3000247620
H 2.0000161820 0.2326134255 -0.7908385792
H 0.5888817724 -0.7021921134 -1.3279443675
H 0.9529607533 -2.0744032714 0.4377091059
H -0.3348982245 2.4557612601 0.1238954854
H -1.8564295955 0.2575030111 -1.0479738116
14
CONF9
C -1.0272372551 -0.4538158718 -0.3347967805
C 0.1313899665 0.3488203249 0.2708489306
C 1.4723375487 -0.0916451347 -0.3343494140
O 1.8111153654 -1.4144164542 -0.0023730214
O -0.0184137596 1.7309319732 0.0280929514
O -2.2660892234 -0.1080456884 0.2438407776
H -0.8168529878 -1.5238878911 -0.2371940701
H -1.1133105140 -0.2077789735 -1.3959663045
H 0.1562652525 0.1754243547 1.3615901580
H 2.2447774271 0.6175657840 -0.0161583717
H 1.4013043580 -0.0552494404 -1.4236072932
H 2.0464343404 -1.4621532306 0.9351170011
H -0.9611210560 1.9480117508 0.0990286741
H -2.3127685316 -0.4578561346 1.1445116589
14
CONF33
C -1.1150334261 -0.0518637212 0.7134633767
C 0.2383975873 0.5754850169 0.3436524769
C 1.1131713349 -0.3979858203 -0.4698402517
O 1.6953688820 -1.3987094521 0.3313977472
O -0.0565246541 1.7421301907 -0.3981363486
O -1.8408094489 -0.4618798144 -0.4189090449
H -1.6885424568 0.6825715892 1.2929551538
H -0.9642126997 -0.9416272982 1.3261404910
H 0.7670356914 0.8289191069 1.2745179093
H 1.9509205298 0.1494918187 -0.9100423974
H 0.5136944564 -0.8332088744 -1.2777839751
H 1.0161478727 -2.0316735176 0.5993978736
H 0.7590465884 2.2150551162 -0.6093346453
H -1.9668073218 0.3137289178 -0.9850336395
14
CONF36
C -1.2118582959 0.2498854474 -0.4566126944
C -0.0448795731 0.5477819523 0.5014927641
C 0.9103639560 -0.6509686207 0.6233692045
O 1.6169813602 -0.8754080926 -0.5779889456
O 0.6513070408 1.6982033341 0.0813878219
O -1.9161258386 -0.8748529485 0.0209049314
H -0.8190898325 0.0671709745 -1.4662868076
H -1.8518667389 1.1391939337 -0.4926657020
H -0.4587321255 0.7670130821 1.4912315974
H 0.3436745933 -1.5319116223 0.9349132472
H 1.6663925038 -0.4222281640 1.3779245566
H 1.0541183765 -1.3621513764 -1.1945506280
H 1.3236476289 1.4156637024 -0.5605764879
H -2.7207163291 -0.9944991141 -0.5020274363
14
CONF76
C -1.3387389036 -0.3458971854 -0.4666142065
C 0.0035675119 -0.0329884683 0.2064549293
C 1.1643373539 -0.6857960140 -0.5530406500
O 2.3884847392 -0.6285417062 0.1327646053
O 0.2227816701 1.3592068547 0.2513026316
O -2.3502198704 0.2466475685 0.3210856013
H -1.4735999478 -1.4320142184 -0.5238618134
H -1.3357982677 0.0750998668 -1.4792262978
H -0.0314078813 -0.4294691721 1.2350104140
H 1.3258805269 -0.1416422503 -1.4854740300
H 0.9009357412 -1.7270669848 -0.7825233656
H 2.2911706058 -1.0398141598 1.0035438097
H -0.5729939371 1.7737198569 0.6180399588
H -3.2121944440 0.0948189784 -0.0884702639
14
CONF21
C -1.4557266547 0.3796130686 -0.2364765353
C -0.0104054900 0.3782107055 0.2758931325
C 0.8031135974 -0.7441066194 -0.3815277062
O 2.0929026162 -0.8552017979 0.1715098756
O 0.6104194492 1.6301110177 0.0829954831
O -2.0665710990 -0.8323425401 0.1406121595
H -1.4506279852 0.4852556176 -1.3310837479
H -1.9771866363 1.2391523787 0.2037296788
H -0.0177559111 0.2177828004 1.3588865526
H 0.8718610517 -0.5597986975 -1.4645496221
H 0.3021906987 -1.6986929532 -0.2151454704
H 2.4623976490 0.0375349929 0.2556288148
H 0.5938965622 1.8548102375 -0.8593837862
H -2.9915478773 -0.8278398558 -0.1432898118
14
CONF34
C -1.1789069240 0.1403438799 -0.4965225317
C -0.0507009974 0.4961392589 0.4887147606
C 0.9558736001 -0.6600939404 0.5913940143
O 1.6560418388 -0.8536564082 -0.6117230973
O 0.6748425029 1.6328458698 0.0689445889
O -2.0450402118 -0.8426475521 0.0145527536
H -0.7389765458 -0.2848844662 -1.4018914504
H -1.7364790316 1.0467250563 -0.7687050803
H -0.4800937735 0.6658854465 1.4884500695
H 0.4195655803 -1.5885845227 0.7947631786
H 1.6563078209 -0.4544645483 1.4115510196
H 2.0430412776 -0.0009156075 -0.8630399020
H 0.0847214080 2.3943874465 -0.0087599827
H -2.5235439856 -0.4895068010 0.7782693142
14
CONF35
C -1.4498382707 0.1084492482 0.6157532891
C 0.0593253996 0.3785203594 0.5181456066
C 0.7974057263 -0.9059049671 0.1028209049
O 2.1782136691 -0.7183160769 -0.0859709374
O 0.3276844638 1.4452211127 -0.3596952731
O -1.9053438049 -0.3238065515 -0.6493367841
H -1.9500265406 1.0394789923 0.9088467777
H -1.6300548032 -0.6567443783 1.3799995882
H 0.4219666700 0.7162061914 1.4955657515
H 0.4092462483 -1.2499122320 -0.8584911550
H 0.6097330796 -1.6818757980 0.8574917474
H 2.5601060495 -0.3183928361 0.7077500301
H -0.0262234108 1.2135498826 -1.2311456256
H -2.8600296964 -0.4687555001 -0.6155348929
14
CONF93
C -1.4463176106 0.1435035411 0.5985121286
C 0.0744785273 0.3434893333 0.4861755559
C 0.7916033830 -0.8928886597 -0.0674353637
O 2.1814132074 -0.6548500477 0.0328765942
O 0.3196110798 1.4696742762 -0.3275515351
O -2.0656929109 -0.3328000957 -0.5709204999
H -1.8920600648 1.1220332875 0.7885564061
H -1.6549470302 -0.5171167930 1.4477919938
H 0.4607800357 0.5364261908 1.5003307483
H 0.5023353346 -1.0313813422 -1.1161565462
H 0.5063893574 -1.7727961166 0.5224217914
H 2.6658227930 -1.4026389116 -0.3415194437
H 1.2738031575 1.5194463545 -0.4880639538
H -1.8581404207 -1.2686145046 -0.6951478363
14
CONF29
C -1.0181307248 -0.4205072961 -0.3491566239
C 0.1491047977 0.3456544166 0.2827059722
C 1.4815184391 -0.1037900517 -0.3305218939
O 1.6990900814 -1.4506199019 0.0200082510
O -0.0895832081 1.7198482804 0.0583681502
O -2.2384580356 -0.1561082600 0.2963243557
H -0.8367842686 -1.4917900848 -0.2540930511
H -1.0797285926 -0.1509463772 -1.4120858908
H 0.1638768458 0.1235040827 1.3594767443
H 2.2878895448 0.5317028586 0.0606747164
H 1.4291321264 0.0204862392 -1.4198946720
H 2.5289250767 -1.7548107191 -0.3736637037
H 0.5656852804 2.2517036162 0.5297581373
H -2.3739587050 0.8032835425 0.2924379782
14
CONF40
C -1.1631079708 0.1575787881 -0.4866264202
C -0.0332617440 0.5375490475 0.4922247539
C 0.9951257401 -0.5920833699 0.6445643285
O 1.5310328718 -0.8823607268 -0.6310932304
O 0.5966359678 1.7276639403 0.0776870093
O -2.0437564056 -0.8110855339 0.0313515392
H -0.7227687118 -0.1736433202 -1.4342520054
H -1.7664006671 1.0501244116 -0.6692347583
H -0.4724301560 0.7529060207 1.4719068620
H 0.5090641539 -1.4737162390 1.0788517001
H 1.7814764656 -0.2488300251 1.3273924459
H 2.2376979027 -1.5350257722 -0.5428169922
H 1.1073963746 1.5311390725 -0.7226353893
H -1.6079615673 -1.6739931459 0.0301375172
14
CONF62
C -1.4443701951 0.0801491713 0.6277790492
C 0.0611949289 0.3495354354 0.5136588543
C 0.7969872219 -0.8835221785 -0.0256095262
O 2.1928830166 -0.7173560570 0.0039485590
O 0.3645194952 1.4129965834 -0.3641306306
O -1.9459789113 -0.3441636665 -0.6195628543
H -1.9480658688 1.0015566246 0.9514271194
H -1.5950619630 -0.6916380145 1.3929006883
H 0.4449535710 0.5786897526 1.5211206832
H 0.4463571906 -1.0712786969 -1.0474461483
H 0.5769103090 -1.7508986267 0.5982889256
H 2.4046441681 0.0894229203 -0.4885295421
H -0.1563796618 2.1930701153 -0.1307573598
H -2.8936207904 -0.5200624919 -0.5414989348
14
CONF39
C -1.1041042351 -0.1539176323 0.7087013438
C 0.2147101088 0.5554194937 0.3585534923
C 1.1246504417 -0.3682852090 -0.4671050496
O 1.6895410109 -1.3988903190 0.3025593795
O -0.0345952793 1.7080690350 -0.4209649691
O -1.8717206686 -0.4157152389 -0.4417814181
H -1.6830381846 0.4605894051 1.4138438984
H -0.8860253704 -1.1180409100 1.1715495057
H 0.7317753678 0.8221164966 1.2912676414
H 1.8946589947 0.2430595811 -0.9525481008
H 0.5284584427 -0.8573384482 -1.2408774244
H 2.3291951951 -1.0258725230 0.9256154491
H -0.4335026804 2.3936922147 0.1334047156
H -1.8439163111 0.3770732273 -1.0016591457
14
CONF50
C -1.4421419980 0.3742490479 -0.2525172003
C -0.0058126296 0.3137940873 0.2891032857
C 0.8379127956 -0.7625929326 -0.4042070267
O 2.1332707266 -0.7104231068 0.1585120143
O 0.5615077345 1.5894086638 0.0872057676
O -2.2433443561 -0.7090203229 0.1464990388
H -1.4131774638 0.4740561656 -1.3435918415
H -1.9099648956 1.2704665802 0.1610868154
H -0.0429909025 0.0856792800 1.3661701320
H 0.8759656692 -0.5485734296 -1.4802653943
H 0.3855846706 -1.7467360567 -0.2377891293
H 2.6988468050 -1.3684169415 -0.2667098950
H 1.5050155823 1.5267332784 0.3022510102
H -1.9957274563 -1.5027841661 -0.3463372345
14
CONF11
C -1.4432292907 0.3911326284 -0.2042119347
C 0.0142741708 0.3711435632 0.2773312605
C 0.8069107453 -0.7258231002 -0.4378037110
O 2.0747218809 -0.8241689192 0.1790736982
O 0.5537891266 1.6505722843 0.0323850160
O -2.1376916806 -0.7925157991 0.0955035724
H -1.4562764246 0.4887621176 -1.2920581454
H -1.9355329129 1.2706494163 0.2258410561
H 0.0437730641 0.1590419757 1.3588543963
H 0.9080649048 -0.4560061219 -1.4967061175
H 0.2499618030 -1.6661703773 -0.3571229774
H 2.5822277645 -1.5316810007 -0.2396185402
H 1.5032564979 1.6167727010 0.2222511519
H -2.2740747814 -0.8536573548 1.0516570920
14
CONF63
C -1.0349297734 -0.5243922595 -0.2737200302
C 0.0018758451 0.2509832131 0.5510092108
C 1.3117058313 -0.5441941748 0.6439529912
O 1.7717396787 -0.7893762765 -0.6694182913
O 0.2363854355 1.5379916546 0.0337724701
O -2.3005747709 0.0703266951 -0.0905005686
H -1.0469983308 -1.5662515025 0.0717381707
H -0.7364153555 -0.5026942939 -1.3285994496
H -0.4026982086 0.4119790160 1.5549022942
H 1.1299835745 -1.4842305267 1.1778203173
H 2.0385648020 0.0559049680 1.2043005040
H 2.6221236852 -1.2471064808 -0.6317039061
H 0.6603406985 1.4409566346 -0.8328315069
H -2.9431901795 -0.3652665781 -0.6668702625
14
CONF10
C -1.0140400544 -0.4639549559 -0.3153674060
C 0.1445320813 0.3490806092 0.2761318149
C 1.4781597875 -0.0737255723 -0.3420843799
O 1.7396659891 -1.4086525074 0.0239067779
O -0.0285090924 1.7291125779 0.0402783472
O -2.2492740650 -0.1064639648 0.2632616503
H -0.8012942170 -1.5306274967 -0.1948451274
H -1.1056206438 -0.2349004952 -1.3800468364
H 0.1960848432 0.1614556657 1.3618924046
H 2.2546579457 0.6042368541 0.0322295327
H 1.4120703364 0.0349056169 -1.4319643387
H 2.5934030089 -1.6769816534 -0.3434220248
H -0.9737323059 1.9286943529 0.1304939209
H -2.2866060265 -0.4362418080 1.1718342697
14
CONF60
C -1.0077243934 -0.5873439167 -0.1181962425
C 0.0418398475 0.2974085159 0.5665192277
C 1.4080788346 -0.3954205789 0.6104288104
O 1.7019415835 -0.9574838725 -0.6484294776
O 0.1690429891 1.5328591926 -0.1046472928
O -2.2524234238 0.0668369494 -0.2072824126
H -1.0894089689 -1.5420380977 0.4114207727
H -0.6875393043 -0.7795278494 -1.1440796615
H -0.2668385186 0.4953513009 1.6080730729
H 1.3804924371 -1.1775948395 1.3809981984
H 2.1511162726 0.3610194160 0.8864339756
H 2.6232055376 -1.2503096288 -0.6587019263
H -0.6799471473 1.7302352772 -0.5306967140
H -2.6456017809 0.1355781214 0.6744718670
14
CONF59
C -1.4415995554 0.3922310121 -0.2377012126
C -0.0097055483 0.3736493500 0.3023118465
C 0.7946464108 -0.7506962352 -0.3724507430
O 2.1005670366 -0.8747904608 0.1438251187
O 0.5507901058 1.6477682632 0.0498706905
O -2.0741254721 -0.8166233172 0.1093857812
H -1.4041257894 0.5240833125 -1.3266300000
H -1.9587024211 1.2539657544 0.2020553366
H -0.0487038143 0.1738671801 1.3810507506
H 0.8179760824 -0.5759447514 -1.4541400555
H 0.2883441128 -1.6966200742 -0.1732112997
H 2.6430918079 -0.1491321454 -0.1955513721
H 1.3126846461 1.7799227693 0.6302466527
H -2.9883506885 -0.7982769110 -0.2064852330
14
CONF7
C -1.1727063896 0.1672535021 -0.4943687210
C -0.0332138017 0.5102311672 0.4867414076
C 0.9312776290 -0.6760314572 0.6108390951
O 1.6144804993 -0.8013808742 -0.6207044534
O 0.6438011385 1.6770350375 0.0848288602
O -2.0488683008 -0.8094382410 0.0145404131
H -0.7440744164 -0.2550777414 -1.4065071239
H -1.7067620090 1.0908018734 -0.7490948839
H -0.4568399939 0.7332057911 1.4725192689
H 0.3477008069 -1.5759587513 0.8345140236
H 1.6415769952 -0.4846039578 1.4247802049
H 2.1905163531 -1.5756445608 -0.5900875461
H 1.2233003318 1.4383167639 -0.6555195699
H -2.5468392360 -0.4394251336 0.7567960946
14
CONF54
C -1.1870128092 0.1793063597 -0.5130869103
C -0.0614191893 0.4989712083 0.4793889592
C 0.9064821872 -0.6963636446 0.5874996640
O 1.6894554408 -0.8496435469 -0.5767449004
O 0.6136154948 1.6843680888 0.1249823006
O -2.0156872913 -0.8051728661 0.0634666432
H -0.7402195883 -0.1852935082 -1.4483208664
H -1.7520798750 1.0995245299 -0.7126063619
H -0.5037924794 0.6813544194 1.4629504983
H 0.3133423434 -1.6061311126 0.6945282749
H 1.5421912664 -0.5779354760 1.4702857538
H 2.4067613160 -0.2009185374 -0.5569017033
H 0.9530371452 1.5858323090 -0.7777285708
H -2.7062711563 -1.0500012359 -0.5678098878
14
CONF55
C -1.0500061380 -0.1775698988 0.7224248258
C 0.2438124953 0.5620785280 0.3267582665
C 1.1490502172 -0.3613086494 -0.4988283704
O 1.6533246201 -1.3635791392 0.3552534115
O -0.0313384000 1.7598344074 -0.3633798641
O -1.9021533407 -0.3824999196 -0.3837951319
H -1.5654144898 0.3776346983 1.5121108174
H -0.7760253543 -1.1641687131 1.1001246653
H 0.7753562504 0.8497582885 1.2384105116
H 1.9650986638 0.2365059411 -0.9259532967
H 0.5549682094 -0.8025371361 -1.3111240633
H 2.2046834004 -1.9711429617 -0.1570746519
H -0.4267697200 1.5366351944 -1.2197958740
H -2.3702214970 0.4425175265 -0.5736753450
14
CONF3
C -1.2530835211 0.2433691497 -0.2238927356
C 0.1482735273 0.6704537857 0.2582436409
C 1.2379607948 -0.2314370700 -0.3497644830
O 1.1780694433 -1.5526487545 0.1280160784
O 0.3815306667 2.0300678754 -0.0253892269
O -1.6086481669 -1.0507930213 0.2102533676
H -1.2682382606 0.2037490170 -1.3174105160
H -1.9836678998 0.9901552079 0.1076855811
H 0.1988220339 0.5894313755 1.3504077960
H 2.2227486502 0.1526046696 -0.0709904456
H 1.1517241655 -0.2170288183 -1.4470327860
H 0.2705469781 -1.8785483140 -0.0041900345
H 0.4034110621 2.1620506190 -0.9839226042
H -1.8034293292 -1.0324313541 1.1574969519
14
CONF77
C -1.3909036865 0.0090235426 0.6621345519
C 0.1006683468 0.3277516349 0.4613435052
C 0.8311895594 -0.8258121128 -0.2336430408
O 2.1874020333 -0.7912668955 0.1538220686
O 0.2426532879 1.4807076538 -0.3479504007
O -2.0380991870 -0.2748803213 -0.5553084156
H -1.8781702000 0.8600154007 1.1585998767
H -1.5065906923 -0.8756980276 1.2895743409
H 0.5741582701 0.4759176809 1.4396313286
H 0.7289184174 -0.6958704584 -1.3164444558
H 0.3697430465 -1.7762597190 0.0605792930
H 2.6793666474 -1.4559104792 -0.3471044893
H 0.1084206900 2.2757537167 0.1846102257
H -1.8274650301 0.4390048238 -1.1767425440
14
CONF27
C -1.2446124561 0.2410901260 -0.2575067672
C 0.1264383008 0.6661543636 0.2925371710
C 1.2508307614 -0.2090086971 -0.2963523981
O 1.1259847760 -1.5677543646 0.0582045284
O 0.3052358720 2.0203493168 -0.0551026397
O -1.6460578725 -1.0275238534 0.1911382373
H -1.2127214090 0.2831569446 -1.3545697356
H -1.9986061673 0.9507202651 0.0912242846
H 0.1042975508 0.5467348006 1.3877595864
H 2.2263346729 0.1857735071 0.0137060394
H 1.1966448954 -0.1711801814 -1.3875997135
H 1.3382802308 -1.6784865833 0.9957784323
H 1.1266135763 2.3544463435 0.3330411460
H -0.9514061674 -1.6653691301 -0.0486407854
14
CONF32
C -1.0769985646 -0.1200451251 0.7236842681
C 0.2467870298 0.5518527535 0.3314948378
C 1.1019234987 -0.4047128659 -0.5108316894
O 1.6634921492 -1.3590891157 0.3627601477
O -0.0846928766 1.7290015134 -0.3733649076
O -1.8778027146 -0.3997792084 -0.3976148831
H -1.6131793621 0.5333576821 1.4236361867
H -0.8642059490 -1.0737122485 1.2087050498
H 0.7999433984 0.7843635737 1.2523127763
H 1.8939616881 0.1624103540 -1.0199634678
H 0.4613651866 -0.8792598842 -1.2637659767
H 2.1137117159 -2.0403952350 -0.1552076793
H 0.7155442860 2.2339045451 -0.5694750679
H -1.9987025917 0.4305535563 -0.8829304020
14
CONF28
C -1.2601578926 0.2461342516 -0.2119836279
C 0.1368203679 0.6663965457 0.2866851092
C 1.2305621372 -0.2120403285 -0.3417009701
O 1.1868081558 -1.5432047196 0.1031997912
O 0.4227790748 1.9984857726 -0.0746156530
O -1.6005411568 -1.0694038282 0.1636986771
H -1.2676324467 0.2638784296 -1.3050938293
H -2.0103021236 0.9610064077 0.1483206760
H 0.1883340549 0.5420136877 1.3803451147
H 2.2077084923 0.1831366880 -0.0542080844
H 1.1435048776 -0.1551984999 -1.4351265204
H 0.2961984496 -1.8913080873 -0.0770482814
H -0.2027230062 2.5975802379 0.3574756718
H -1.7763804718 -1.1000414600 1.1147572691
14
CONF73
C -0.9931798970 -0.5789336198 -0.1972791945
C 0.0234508251 0.2771809113 0.5618095660
C 1.3935631630 -0.4048088886 0.6170493382
O 1.7176348680 -0.9381429204 -0.6471684001
O 0.1744858636 1.5415058613 -0.0444361264
O -2.2406493934 0.0816889336 -0.1333293471
H -1.0448503915 -1.5686790016 0.2705392052
H -0.6541231485 -0.6850824064 -1.2335325425
H -0.3375962744 0.4136916142 1.5943906627
H 1.3594986805 -1.2035513143 1.3697310732
H 2.1224171015 0.3535270618 0.9228174559
H 2.6442605342 -1.2145068552 -0.6464579253
H -0.7111628646 1.8759831677 -0.2508261862
H -2.8965781572 -0.4259884457 -0.6288053528
14
CONF8
C -1.2417806163 0.2596567427 -0.2157048650
C 0.1574054858 0.6611767437 0.2817517836
C 1.2398869249 -0.2335290625 -0.3491964961
O 1.1680690161 -1.5623538644 0.1056668855
O 0.3273076049 2.0164767826 -0.0662273075
O -1.6117688614 -1.0422021156 0.1740297653
H -1.2434419333 0.2699662880 -1.3085889240
H -1.9620015131 1.0072935334 0.1325461236
H 0.1998190273 0.5352105243 1.3760912124
H 2.2340744616 0.1253432268 -0.0672466598
H 1.1491237081 -0.1871535262 -1.4435971754
H 0.2626424811 -1.8841599712 -0.0471638193
H 1.1954774805 2.3244437853 0.2296265989
H -1.8412540669 -1.0461491036 1.1138995862
14
CONF38
C -1.0858497228 -0.1505368268 0.7209414989
C 0.2336847068 0.5467188707 0.3510619775
C 1.1084616227 -0.3747020257 -0.5030886448
O 1.6665300613 -1.3524506276 0.3450205118
O -0.0214725732 1.7182839394 -0.3972706480
O -1.8745271824 -0.4044154174 -0.4172512991
H -1.6450316039 0.4698448940 1.4359539739
H -0.8672182055 -1.1147507079 1.1819477878
H 0.7883853066 0.7721864614 1.2709579736
H 1.8895427151 0.2339118881 -0.9763771535
H 0.4884283722 -0.8311106059 -1.2837464812
H 2.1707417461 -1.9827640149 -0.1874176279
H -0.3590660708 2.4079558678 0.1911546514
H -1.8773868597 0.4011954877 -0.9591619377
14
CONF23
C -1.0453403426 -0.1304726415 0.7496547021
C 0.2412703137 0.5854527777 0.3233453993
C 1.1282473977 -0.3595332973 -0.5021346836
O 1.6259380190 -1.3623375733 0.3561706161
O -0.0467335447 1.7642886618 -0.3877814772
O -1.8064985222 -0.3806852547 -0.4156751552
H -1.6014521940 0.5143926631 1.4406976987
H -0.7701889422 -1.0617181489 1.2560508578
H 0.7972639792 0.8865508711 1.2170037871
H 1.9445160286 0.2302680632 -0.9378026733
H 0.5259290724 -0.7949969060 -1.3095629237
H 2.1953807870 -1.9586465157 -0.1496053254
H -0.7258509948 1.5491485892 -1.0467110993
H -2.6206119861 -0.8399141413 -0.1726358543
14
CONF15
C -1.2745583432 0.2991364147 -0.1701618376
C 0.1483490937 0.6536464321 0.2761597027
C 1.1862670352 -0.2613833556 -0.3987485581
O 1.2204604725 -1.5461390606 0.1713822030
O 0.3395570431 2.0085249540 -0.0624772044
O -1.5503189246 -1.0413746577 0.1692655818
H -1.3422595538 0.4558158030 -1.2543973040
H -1.9686987092 0.9875325073 0.3261435718
H 0.2211034085 0.5058295402 1.3646970815
H 2.1890269071 0.1532215304 -0.2621236040
H 0.9771752741 -0.3164793069 -1.4765621372
H 0.3098011726 -1.8838556805 0.2011358018
H 1.2031509015 2.3042708804 0.2578488675
H -2.4589039766 -1.2546335046 -0.0837932929
14
CONF13
C -1.2330153349 0.1986035718 -0.2920016948
C 0.1251573549 0.6602266917 0.2651373603
C 1.2776276248 -0.1889525449 -0.2964740850
O 1.0884065578 -1.5338456367 0.0876612361
O 0.3513807477 2.0279364586 0.0210812658
O -1.6741101185 -1.0098289067 0.2754256688
H -1.1695865851 0.1038707940 -1.3874316363
H -1.9909418095 0.9477398010 -0.0470847524
H 0.1051682365 0.5514070019 1.3550473088
H 2.2203258107 0.2076287883 0.0993872282
H 1.2877998343 -0.1022291167 -1.3927359410
H 1.8509070923 -2.0604934868 -0.1886609458
H 0.3270304812 2.1957090223 -0.9322182989
H -0.9342073081 -1.6394758731 0.2485950737
14
CONF82
C -1.3605626834 -0.0730203110 -0.5445823056
C -0.0149337317 0.0198948240 0.1795274506
C 1.0894795936 -0.7364729509 -0.5692007916
O 2.2811665238 -0.5812177019 0.1717432110
O 0.3246052592 1.3835367997 0.3040444196
O -2.3921616334 -0.0637028845 0.4158161867
H -1.3984263326 -0.9997856788 -1.1320952526
H -1.4386404237 0.7884827289 -1.2167410261
H -0.1330168591 -0.4259366121 1.1787083515
H 1.1978079738 -0.3060300868 -1.5727104699
H 0.8144648400 -1.7940202612 -0.6508043252
H 3.0061673656 -1.0333620548 -0.2800018460
H 1.2151997730 1.4324438134 0.6838148209
H -3.2460580593 0.0228323975 -0.0302214469
14
CONF31
C -1.2154161270 0.2087268848 -0.3004809785
C 0.1312321764 0.6494076268 0.2932771113
C 1.2878108016 -0.1865630826 -0.2786099755
O 1.0770420581 -1.5432910083 0.0481759028
O 0.2993847465 2.0137936293 -0.0163516459
O -1.6837556778 -0.9977291951 0.2443673087
H -1.1232135247 0.1370831137 -1.3932581210
H -1.9629860366 0.9707119721 -0.0675355983
H 0.0821442349 0.4929764804 1.3812781827
H 2.2350759198 0.1690967781 0.1484006602
H 1.3140525150 -0.0422724361 -1.3666151135
H 1.7917513784 -2.0788161591 -0.3232118714
H 1.0754977571 2.3630713952 0.4445313981
H -0.9604214182 -1.6455157467 0.1981127685
14
CONF83
C -1.3085432651 -0.3646661216 -0.4406290858
C 0.0401118424 0.0308079350 0.1731780548
C 1.2195459292 -0.5019437044 -0.6455196032
O 2.2666941856 -0.8375932904 0.2364022572
O 0.1519986874 1.4354357639 0.2432593597
O -2.3199229024 0.1698169694 0.3870116234
H -1.3793312837 -1.4571153154 -0.4886688593
H -1.3747924196 0.0537717835 -1.4529555537
H 0.1060034355 -0.3976756207 1.1847081038
H 1.5259368057 0.2869226229 -1.3413218574
H 0.9041268839 -1.3869441175 -1.2135538154
H 3.0620594679 -1.0469514972 -0.2727773815
H -0.6422144291 1.7730143330 0.6846760954
H -3.1870745521 -0.0508459689 0.0219394450
14
CONF84
C -1.1455963867 0.1981156657 -0.5120136162
C -0.0403901560 0.5162860066 0.4982605515
C 0.9380876084 -0.6593096083 0.6146802476
O 1.5795450927 -0.8676480201 -0.6245734539
O 0.5748502732 1.7109881775 0.0793708679
O -1.9686524933 -0.8104246560 0.0280557817
H -0.6735633199 -0.1223444253 -1.4476804902
H -1.7106273334 1.1203527181 -0.6947876466
H -0.5123183708 0.6530901325 1.4855378960
H 0.3545725697 -1.5381318661 0.9130577394
H 1.6779149889 -0.4377557983 1.3965278681
H 2.1288667378 -1.6609022281 -0.5685294001
H 1.3892133840 1.8479919995 0.5839638752
H -2.6484301506 -1.0412633502 -0.6199494282
