 xtb: 6.7.1 (edcfbbe)
          04112512373D

 21 21  0     0  0            999 V2000
   -2.5908    1.1478    0.5510 C   0  0  0  0  0  0  0  0  0  0  0  0
   -2.5460    0.0649   -0.5197 C   0  0  0  0  0  0  0  0  0  0  0  0
   -1.5636   -1.0601   -0.1650 C   0  0  0  0  0  0  0  0  0  0  0  0
   -0.1479   -0.5605   -0.1239 C   0  0  0  0  0  0  0  0  0  0  0  0
    0.4841   -0.2898    1.0829 C   0  0  0  0  0  0  0  0  0  0  0  0
    1.7774    0.2030    1.1101 C   0  0  0  0  0  0  0  0  0  0  0  0
    2.4582    0.4328   -0.0730 C   0  0  0  0  0  0  0  0  0  0  0  0
    1.8389    0.1641   -1.2824 C   0  0  0  0  0  0  0  0  0  0  0  0
    0.5467   -0.3282   -1.3055 C   0  0  0  0  0  0  0  0  0  0  0  0
   -3.2983    1.9258    0.2750 H   0  0  0  0  0  0  0  0  0  0  0  0
   -2.8980    0.7271    1.5059 H   0  0  0  0  0  0  0  0  0  0  0  0
   -1.6100    1.6018    0.6748 H   0  0  0  0  0  0  0  0  0  0  0  0
   -2.2514    0.5099   -1.4724 H   0  0  0  0  0  0  0  0  0  0  0  0
   -3.5425   -0.3641   -0.6430 H   0  0  0  0  0  0  0  0  0  0  0  0
   -1.6478   -1.8487   -0.9159 H   0  0  0  0  0  0  0  0  0  0  0  0
   -1.8367   -1.4800    0.8048 H   0  0  0  0  0  0  0  0  0  0  0  0
   -0.0411   -0.4669    2.0106 H   0  0  0  0  0  0  0  0  0  0  0  0
    2.2548    0.4085    2.0571 H   0  0  0  0  0  0  0  0  0  0  0  0
    3.4672    0.8170   -0.0533 H   0  0  0  0  0  0  0  0  0  0  0  0
    2.3656    0.3383   -2.2093 H   0  0  0  0  0  0  0  0  0  0  0  0
    0.0691   -0.5385   -2.2521 H   0  0  0  0  0  0  0  0  0  0  0  0
  1  2  1  0  0  0  0
  2  3  1  0  0  0  0
  3  4  1  0  0  0  0
  4  5  4  0  0  0  0
  5  6  4  0  0  0  0
  6  7  4  0  0  0  0
  7  8  4  0  0  0  0
  4  9  4  0  0  0  0
  8  9  4  0  0  0  0
  1 10  1  0  0  0  0
  1 11  1  0  0  0  0
  1 12  1  0  0  0  0
  2 13  1  0  0  0  0
  2 14  1  0  0  0  0
  3 15  1  0  0  0  0
  3 16  1  0  0  0  0
  5 17  1  0  0  0  0
  6 18  1  0  0  0  0
  7 19  1  0  0  0  0
  8 20  1  0  0  0  0
  9 21  1  0  0  0  0
M  END
