 xtb: 6.7.1 (edcfbbe)
          04112512413D

 21 20  0     0  0            999 V2000
    1.6093    0.6380    1.2648 C   0  0  0  0  0  0  0  0  0  0  0  0
    1.2012    0.3962   -0.1868 C   0  0  0  0  0  0  0  0  0  0  0  0
    0.9269    1.3560   -0.6518 H   0  0  0  0  0  0  0  0  0  0  0  0
    0.0336   -0.5875   -0.3173 C   0  0  0  0  0  0  0  0  0  0  0  0
   -1.2835   -0.1633    0.3382 C   0  0  0  0  0  0  0  0  0  0  0  0
   -1.8245    1.1385   -0.2494 C   0  0  0  0  0  0  0  0  0  0  0  0
   -2.3121   -1.2801    0.1603 C   0  0  0  0  0  0  0  0  0  0  0  0
    2.2699   -0.1760   -0.9317 O   0  0  0  0  0  0  0  0  0  0  0  0
    0.8003    1.1155    1.8084 H   0  0  0  0  0  0  0  0  0  0  0  0
    1.8522   -0.3074    1.7440 H   0  0  0  0  0  0  0  0  0  0  0  0
    2.4811    1.2874    1.3098 H   0  0  0  0  0  0  0  0  0  0  0  0
   -0.1310   -0.7531   -1.3847 H   0  0  0  0  0  0  0  0  0  0  0  0
    0.3613   -1.5379    0.1102 H   0  0  0  0  0  0  0  0  0  0  0  0
   -1.1180   -0.0227    1.4109 H   0  0  0  0  0  0  0  0  0  0  0  0
   -2.8047    1.3578    0.1674 H   0  0  0  0  0  0  0  0  0  0  0  0
   -1.9218    1.0532   -1.3294 H   0  0  0  0  0  0  0  0  0  0  0  0
   -1.1676    1.9748   -0.0261 H   0  0  0  0  0  0  0  0  0  0  0  0
   -1.9464   -2.2109    0.5869 H   0  0  0  0  0  0  0  0  0  0  0  0
   -3.2460   -1.0197    0.6527 H   0  0  0  0  0  0  0  0  0  0  0  0
   -2.5139   -1.4430   -0.8960 H   0  0  0  0  0  0  0  0  0  0  0  0
    3.0541    0.3820   -0.8425 H   0  0  0  0  0  0  0  0  0  0  0  0
  1  2  1  0  0  0  0
  2  3  1  0  0  0  0
  2  4  1  0  0  0  0
  4  5  1  0  0  0  0
  5  6  1  0  0  0  0
  5  7  1  0  0  0  0
  2  8  1  0  0  0  0
  1  9  1  0  0  0  0
  1 10  1  0  0  0  0
  1 11  1  0  0  0  0
  4 12  1  0  0  0  0
  4 13  1  0  0  0  0
  5 14  1  0  0  0  0
  6 15  1  0  0  0  0
  6 16  1  0  0  0  0
  6 17  1  0  0  0  0
  7 18  1  0  0  0  0
  7 19  1  0  0  0  0
  7 20  1  0  0  0  0
  8 21  1  0  0  0  0
M  END
