23
 xtb: 6.7.1 (edcfbbe)
C           -2.45539400620696        0.88335896679452       -0.26770563135358
C           -1.14200347647730        0.31651054729198        0.28010532675171
C           -1.33840960574553       -1.15122515095660        0.66546373725880
C           -0.02972315189201        0.54743000871706       -0.75560661774252
C            1.42300183154862        0.16711522773131       -0.39949279741455
C            1.83026899286653        0.66332598294169        0.98876161586975
C            1.74594610252800       -1.32152220852330       -0.56508499713711
H           -2.35604921529389        1.94212099997735       -0.53111502724535
H           -2.75964784319747        0.33947721098476       -1.17077631418885
H           -3.26290745226251        0.79074475571096        0.46671244667156
H           -0.88868893579347        0.87811919480137        1.18991512919897
H           -0.49378370738488       -1.54831797557927        1.23365157161133
H           -2.23454111732111       -1.26655863817287        1.28600625942281
H           -1.46872831837968       -1.77326975427003       -0.22901467090693
H           -0.03630015270772        1.62045646944259       -0.99104994237562
H           -0.31008373709462        0.02934049405951       -1.68459388761252
H            2.04864714035195        0.69876581722699       -1.13065196584112
H            1.29293771400009        0.12455159204709        1.77734157718709
H            2.90216564929875        0.50936855038028        1.15524843863221
H            1.62118442508257        1.73240215585762        1.10909650586341
H            2.82718962226628       -1.48462100757460       -0.48938444195587
H            1.26954654797922       -1.93797138565522        0.20207346381294
H            1.42058249285380       -1.69009812835033       -1.54431781096109
