  17
 
 C          1.3677711450       -2.3059295200        0.0597575150
 C          0.7025265917       -0.9605673218       -0.2040068086
 H          0.8155519290       -0.6748437395       -1.2577316939
 C         -0.7819806252       -0.9751302837        0.1521205103
 O         -1.3666183508        0.1723562199       -0.4330667269
 N         -2.7157593524        0.4009026541       -0.1215980494
 O         -3.2279995648       -0.3960300786        0.5881156623
 O         -3.1521672062        1.3692684224       -0.6274600931
 O          1.2894018082        0.0525116098        0.6064950034
 N          2.3835193266        0.7505334598        0.0855841512
 O          2.7578093197        0.4328711817       -0.9916967519
 O          2.7915351668        1.5750008757        0.8203981427
 H          1.2789239313       -2.5662363731        1.1110758954
 H          0.8997054574       -3.0778681096       -0.5423843523
 H          2.4208633290       -2.2537190346       -0.2043932950
 H         -1.2575801306       -1.8794410387       -0.2407749668
 H         -0.9032614184       -0.9458910015        1.2400377064
          17
        -39.50256898
 C          1.5340375875       -2.5107211373       -0.3516626513
 C          0.7827258086       -1.1956786974       -0.2125374625
 H          0.3762214198       -0.8821996358       -1.1833485916
 C         -0.3601806853       -1.3149318664        0.8084880683
 O         -1.0772865763       -0.1108998221        0.9683814270
 N         -2.0367036841        0.1918673833       -0.0265619272
 O         -2.1488900749       -0.6021752726       -0.8960891231
 O         -2.6043184462        1.1984941674        0.1757470971
 O          1.7169025919       -0.2178688607        0.2313130369
 N          1.4873628568        1.1145598129       -0.1325664962
 O          2.3022183274        1.8514134609        0.2876224684
 O          0.5371437500        1.3263884125       -0.8082162994
 H          0.8649245667       -3.2779794370       -0.7276811220
 H          2.3600556055       -2.3888968840       -1.0459746409
 H          1.9322983342       -2.8160665964        0.6114936843
 H         -1.0356924923       -2.1196129986        0.5010728668
 H          0.0471469635       -1.5235636278        1.7993529859
