 xtb: 6.7.1 (edcfbbe)
          04112511523D

 13 12  0     0  0            999 V2000
    2.3951   -0.2841   -0.6411 C   0  0  0  0  0  0  0  0  0  0  0  0
    1.1242   -0.8708   -0.3083 O   0  0  0  0  0  0  0  0  0  0  0  0
   -0.0001    0.1753   -0.0004 S   0  0  0  0  0  0  0  0  0  0  0  0
   -0.3206    0.9391   -1.1720 O   0  0  0  0  0  0  0  0  0  0  0  0
    0.3205    0.9369    1.1725 O   0  0  0  0  0  0  0  0  0  0  0  0
   -1.1247   -0.8711    0.3056 O   0  0  0  0  0  0  0  0  0  0  0  0
   -2.3941   -0.2847    0.6442 C   0  0  0  0  0  0  0  0  0  0  0  0
    2.2803    0.3285   -1.5352 H   0  0  0  0  0  0  0  0  0  0  0  0
    3.0665   -1.1209   -0.8156 H   0  0  0  0  0  0  0  0  0  0  0  0
    2.7315    0.3304    0.1937 H   0  0  0  0  0  0  0  0  0  0  0  0
   -2.7339    0.3311   -0.1882 H   0  0  0  0  0  0  0  0  0  0  0  0
   -2.2757    0.3264    1.5388 H   0  0  0  0  0  0  0  0  0  0  0  0
   -3.0650   -1.1218    0.8200 H   0  0  0  0  0  0  0  0  0  0  0  0
  1  2  1  0  0  0  0
  2  3  1  0  0  0  0
  3  4  2  0  0  0  0
  3  5  2  0  0  0  0
  3  6  1  0  0  0  0
  6  7  1  0  0  0  0
  1  8  1  0  0  0  0
  1  9  1  0  0  0  0
  1 10  1  0  0  0  0
  7 11  1  0  0  0  0
  7 12  1  0  0  0  0
  7 13  1  0  0  0  0
M  END
