  14
 
 C         -0.4689932387        1.3704803698       -0.1043683171
 C          0.0007061257       -0.0006073702        0.3757282467
 C         -0.9539533631       -1.0891456102       -0.1087710205
 C          1.4198523798       -0.2787577620       -0.1140309928
 H          0.2030050820        2.1502287529        0.2466996138
 H         -0.4930463393        1.4018758535       -1.1916977162
 H         -1.4681873584        1.5856866191        0.2673191371
 H          0.0039670125       -0.0031775296        1.4719436767
 H         -0.6300784054       -2.0663874852        0.2416946120
 H         -0.9848065264       -1.1074081700       -1.1962640776
 H         -1.9611081457       -0.9088228543        0.2600318852
 H          1.7616234393       -1.2510189075        0.2334721323
 H          2.1084498756        0.4784358904        0.2539219734
 H          1.4517576103       -0.2722864577       -1.2015534885
          14
        -13.66755896
 C         -0.2280686117        1.4296071413       -0.1083290288
 C          0.0000035046       -0.0000227731        0.3760250305
 C         -1.1241338563       -0.9122847447       -0.1083342753
 C          1.3522033455       -0.5172901918       -0.1083283597
 H         -0.2337368233        1.4635008263       -1.1959708614
 H         -1.1817987029        1.8095162191        0.2515006298
 H          0.5604554574        2.0870886876        0.2509812450
 H         -0.0000321836        0.0000620108        1.4721977459
 H         -0.9762237846       -1.9281043032        0.2514977160
 H         -1.1506860460       -0.9342330690       -1.1959619552
 H         -2.0878653724       -0.5582725250        0.2510276111
 H          1.5277004797       -1.5286299119        0.2517573133
 H          2.1579874259        0.1191423779        0.2508137953
 H          1.3841473283       -0.5301827094       -1.1960005639
