 xtb: 6.7.1 (edcfbbe)
          04112512413D

 21 20  0     0  0            999 V2000
    2.4233   -0.1581   -0.9225 C   0  0  0  0  0  0  0  0  0  0  0  0
    1.2544   -0.2703    0.0525 C   0  0  0  0  0  0  0  0  0  0  0  0
    1.0752   -1.3359    0.2661 H   0  0  0  0  0  0  0  0  0  0  0  0
   -0.0111    0.3639   -0.5404 C   0  0  0  0  0  0  0  0  0  0  0  0
   -1.3064    0.0569    0.2226 C   0  0  0  0  0  0  0  0  0  0  0  0
   -2.4104    1.0105   -0.2332 C   0  0  0  0  0  0  0  0  0  0  0  0
   -1.7524   -1.3891    0.0139 C   0  0  0  0  0  0  0  0  0  0  0  0
    1.6570    0.3756    1.2520 O   0  0  0  0  0  0  0  0  0  0  0  0
    3.3238   -0.5491   -0.4565 H   0  0  0  0  0  0  0  0  0  0  0  0
    2.2143   -0.7198   -1.8273 H   0  0  0  0  0  0  0  0  0  0  0  0
    2.5917    0.8857   -1.1739 H   0  0  0  0  0  0  0  0  0  0  0  0
    0.1476    1.4448   -0.5614 H   0  0  0  0  0  0  0  0  0  0  0  0
   -0.1196    0.0209   -1.5704 H   0  0  0  0  0  0  0  0  0  0  0  0
   -1.1409    0.2187    1.2942 H   0  0  0  0  0  0  0  0  0  0  0  0
   -3.3368    0.8021    0.2966 H   0  0  0  0  0  0  0  0  0  0  0  0
   -2.5907    0.8946   -1.2995 H   0  0  0  0  0  0  0  0  0  0  0  0
   -2.1308    2.0440   -0.0423 H   0  0  0  0  0  0  0  0  0  0  0  0
   -0.9952   -2.0906    0.3542 H   0  0  0  0  0  0  0  0  0  0  0  0
   -2.6679   -1.5843    0.5673 H   0  0  0  0  0  0  0  0  0  0  0  0
   -1.9426   -1.5749   -1.0408 H   0  0  0  0  0  0  0  0  0  0  0  0
    0.9263    0.3604    1.8836 H   0  0  0  0  0  0  0  0  0  0  0  0
  1  2  1  0  0  0  0
  2  3  1  0  0  0  0
  2  4  1  0  0  0  0
  4  5  1  0  0  0  0
  5  6  1  0  0  0  0
  5  7  1  0  0  0  0
  2  8  1  0  0  0  0
  1  9  1  0  0  0  0
  1 10  1  0  0  0  0
  1 11  1  0  0  0  0
  4 12  1  0  0  0  0
  4 13  1  0  0  0  0
  5 14  1  0  0  0  0
  6 15  1  0  0  0  0
  6 16  1  0  0  0  0
  6 17  1  0  0  0  0
  7 18  1  0  0  0  0
  7 19  1  0  0  0  0
  7 20  1  0  0  0  0
  8 21  1  0  0  0  0
M  END
