 xtb: 6.7.1 (edcfbbe)
          04112511353D

 26 27  0     0  0            999 V2000
    0.0000   -2.5240    0.0001 C   0  0  0  0  0  0  0  0  0  0  0  0
    0.0000   -1.1906    0.0000 C   0  0  0  0  0  0  0  0  0  0  0  0
   -1.2553   -0.4193   -0.0448 C   0  0  0  0  0  0  0  0  0  0  0  0
   -2.3759   -0.8269    0.6748 C   0  0  0  0  0  0  0  0  0  0  0  0
   -3.5522   -0.1022    0.6154 C   0  0  0  0  0  0  0  0  0  0  0  0
   -3.6292    1.0385   -0.1666 C   0  0  0  0  0  0  0  0  0  0  0  0
   -2.5205    1.4528   -0.8867 C   0  0  0  0  0  0  0  0  0  0  0  0
   -1.3418    0.7332   -0.8236 C   0  0  0  0  0  0  0  0  0  0  0  0
    1.2554   -0.4193    0.0448 C   0  0  0  0  0  0  0  0  0  0  0  0
    1.3417    0.7333    0.8234 C   0  0  0  0  0  0  0  0  0  0  0  0
    2.5204    1.4529    0.8865 C   0  0  0  0  0  0  0  0  0  0  0  0
    3.6292    1.0385    0.1665 C   0  0  0  0  0  0  0  0  0  0  0  0
    3.5523   -0.1022   -0.6153 C   0  0  0  0  0  0  0  0  0  0  0  0
    2.3760   -0.8270   -0.6747 C   0  0  0  0  0  0  0  0  0  0  0  0
    0.9141   -3.0896    0.0528 H   0  0  0  0  0  0  0  0  0  0  0  0
   -0.9141   -3.0896   -0.0525 H   0  0  0  0  0  0  0  0  0  0  0  0
   -2.3153   -1.7066    1.2983 H   0  0  0  0  0  0  0  0  0  0  0  0
   -4.4115   -0.4265    1.1836 H   0  0  0  0  0  0  0  0  0  0  0  0
   -4.5480    1.6035   -0.2127 H   0  0  0  0  0  0  0  0  0  0  0  0
   -2.5743    2.3410   -1.4985 H   0  0  0  0  0  0  0  0  0  0  0  0
   -0.4797    1.0571   -1.3889 H   0  0  0  0  0  0  0  0  0  0  0  0
    0.4796    1.0573    1.3887 H   0  0  0  0  0  0  0  0  0  0  0  0
    2.5742    2.3413    1.4982 H   0  0  0  0  0  0  0  0  0  0  0  0
    4.5479    1.6036    0.2126 H   0  0  0  0  0  0  0  0  0  0  0  0
    4.4116   -0.4266   -1.1834 H   0  0  0  0  0  0  0  0  0  0  0  0
    2.3154   -1.7067   -1.2980 H   0  0  0  0  0  0  0  0  0  0  0  0
  1  2  2  0  0  0  0
  2  3  1  0  0  0  0
  3  4  4  0  0  0  0
  4  5  4  0  0  0  0
  5  6  4  0  0  0  0
  6  7  4  0  0  0  0
  3  8  4  0  0  0  0
  7  8  4  0  0  0  0
  2  9  1  0  0  0  0
  9 10  4  0  0  0  0
 10 11  4  0  0  0  0
 11 12  4  0  0  0  0
 12 13  4  0  0  0  0
  9 14  4  0  0  0  0
 13 14  4  0  0  0  0
  1 15  1  0  0  0  0
  1 16  1  0  0  0  0
  4 17  1  0  0  0  0
  5 18  1  0  0  0  0
  6 19  1  0  0  0  0
  7 20  1  0  0  0  0
  8 21  1  0  0  0  0
 10 22  1  0  0  0  0
 11 23  1  0  0  0  0
 12 24  1  0  0  0  0
 13 25  1  0  0  0  0
 14 26  1  0  0  0  0
M  END
