27
 xtb: 6.7.1 (edcfbbe)
C           -4.39185148598246       -1.88156525568538        0.74337258702647
C           -2.99023927250627       -1.28191241887874        0.82147044470699
C           -2.62921637393478       -0.50719426237601       -0.44926748537146
H           -3.36465199539972        0.29013661326633       -0.56982653307187
C           -2.64587865955413       -1.34064009677869       -1.72829760236215
N           -1.34117321081150        0.23267133903349       -0.25509031705135
C           -0.12159966050938       -0.47603821549066       -0.26041884112797
O           -0.10570642030574       -1.69697379745137       -0.40698029467205
C            1.05842539828491        0.33983458808141       -0.09082508351411
C            0.99392545499574        1.67860357180006        0.14333963186395
N           -0.24659066974103        2.24764060444092        0.20296361970882
C           -1.44308821682578        1.58400742559892        0.03846591280471
O           -2.51051270801578        2.18915959583157        0.14520516166489
C            2.16169678500413        2.57545444030898        0.35443620837167
Br           2.73334781089873       -0.54350439197440       -0.15851795650390
H           -4.45556357686959       -2.66305668660572       -0.01963274210051
H           -4.66727294702009       -2.33135767482822        1.70202132036182
H           -5.13663339370604       -1.11366019596295        0.50561417898393
H           -2.93503069641587       -0.58862573322370        1.66946014391869
H           -2.25329946359165       -2.07263824210772        0.99542981932549
H           -2.17595093759763       -2.31641257541579       -1.60145307485574
H           -3.68711047540274       -1.49479022410314       -2.02513271489585
H           -2.14711728720077       -0.81254158387105       -2.54592757017952
H           -0.32441577963422        3.23796141503364        0.40055542306720
H            1.84767886512620        3.61307254435403        0.48020156011520
H            2.84545662895463        2.51125967507528       -0.49687927877006
H            2.71827252208401        2.26488748015839        1.24441600895283
