  20
 
 C          0.1790000000        1.6250000000       -2.7500000000
 C         -0.5260000000        1.1630000000       -1.4850000000
 C          0.3540000000        0.2210000000       -0.6650000000
 C         -0.3590000000       -0.2410000000        0.6070000000
 C          0.5260000000       -1.1860000000        1.4270000000
 C         -0.1420000000       -1.6780000000        2.7120000000
 I          1.1150000000       -2.9930000000        3.8350000000
 H         -0.4590000000        2.2990000000       -3.3310000000
 H          0.4280000000        0.7660000000       -3.3810000000
 H          1.1080000000        2.1520000000       -2.5110000000
 H         -0.7960000000        2.0390000000       -0.8840000000
 H         -1.4600000000        0.6570000000       -1.7580000000
 H          1.2880000000        0.7310000000       -0.3980000000
 H          0.6250000000       -0.6510000000       -1.2730000000
 H         -1.2900000000       -0.7550000000        0.3380000000
 H         -0.6350000000        0.6360000000        1.2030000000
 H          1.4860000000       -0.7030000000        1.6500000000
 H          0.7540000000       -2.0640000000        0.8100000000
 H         -0.4510000000       -0.8290000000        3.3320000000
 H         -1.0530000000       -2.2260000000        2.4460000000
