14
 xtb: 6.7.1 (edcfbbe)
C           -1.25967383516703        0.27050513041126       -0.21723773448885
C            0.13635952748773        0.64103198978646        0.28348585828388
C            1.23265771713705       -0.21089291266237       -0.34705474135776
O            1.19548515618386       -1.56668470451046        0.11681508987127
O            0.42558192559765        1.99745134555891       -0.08973279672648
O           -1.61649211812415       -1.08473260464476        0.11435043952050
H           -1.28395899367621        0.33770230164730       -1.31012646800987
H           -1.99741737675270        0.97441358443375        0.19310505884851
H            0.17743722827763        0.52301081691343        1.37812878125431
H            2.21005670759571        0.19454373947995       -0.06694358276455
H            1.14201690276122       -0.16842950787578       -1.44366015330924
H            0.27264937169860       -1.85593375079949        0.02952696793250
H           -0.22719885113909        2.56708341788632        0.33855775504809
H           -1.71252546415777       -1.13163453039603        1.07548239979097
