 xtb: 6.7.1 (edcfbbe)
          04112511243D

 18 17  0     0  0            999 V2000
    1.9111   -0.3923    0.8772 C   0  0  0  0  0  0  0  0  0  0  0  0
    1.5147    0.2609   -0.4417 C   0  0  0  0  0  0  0  0  0  0  0  0
    0.2520   -0.3107   -1.0945 C   0  0  0  0  0  0  0  0  0  0  0  0
   -1.0848   -0.0044   -0.3838 C   0  0  0  0  0  0  0  0  0  0  0  0
   -1.8841   -0.0983   -1.1401 H   0  0  0  0  0  0  0  0  0  0  0  0
   -1.4179   -0.9802    0.7420 C   0  0  0  0  0  0  0  0  0  0  0  0
   -1.1238    1.3061    0.1570 O   0  0  0  0  0  0  0  0  0  0  0  0
    1.8911   -1.4764    0.7935 H   0  0  0  0  0  0  0  0  0  0  0  0
    1.2413   -0.0872    1.6761 H   0  0  0  0  0  0  0  0  0  0  0  0
    2.9183   -0.0869    1.1525 H   0  0  0  0  0  0  0  0  0  0  0  0
    1.3846    1.3321   -0.2779 H   0  0  0  0  0  0  0  0  0  0  0  0
    2.3326    0.1325   -1.1551 H   0  0  0  0  0  0  0  0  0  0  0  0
    0.1951    0.1002   -2.1063 H   0  0  0  0  0  0  0  0  0  0  0  0
    0.3460   -1.3933   -1.1865 H   0  0  0  0  0  0  0  0  0  0  0  0
   -2.3982   -0.7380    1.1450 H   0  0  0  0  0  0  0  0  0  0  0  0
   -1.4318   -1.9960    0.3594 H   0  0  0  0  0  0  0  0  0  0  0  0
   -0.6933   -0.9070    1.5445 H   0  0  0  0  0  0  0  0  0  0  0  0
   -1.0228    1.9462   -0.5592 H   0  0  0  0  0  0  0  0  0  0  0  0
  1  2  1  0  0  0  0
  2  3  1  0  0  0  0
  3  4  1  0  0  0  0
  4  5  1  0  0  0  0
  4  6  1  0  0  0  0
  4  7  1  0  0  0  0
  1  8  1  0  0  0  0
  1  9  1  0  0  0  0
  1 10  1  0  0  0  0
  2 11  1  0  0  0  0
  2 12  1  0  0  0  0
  3 13  1  0  0  0  0
  3 14  1  0  0  0  0
  6 15  1  0  0  0  0
  6 16  1  0  0  0  0
  6 17  1  0  0  0  0
  7 18  1  0  0  0  0
M  END
