 xtb: 6.7.1 (edcfbbe)
          04112512403D

 18 17  0     0  0            999 V2000
   -2.3576    0.7436   -0.0000 C   0  0  0  0  0  0  0  0  0  0  0  0
   -0.8407    0.8835   -0.0374 C   0  0  0  0  0  0  0  0  0  0  0  0
   -0.0999   -0.3415    0.5104 C   0  0  0  0  0  0  0  0  0  0  0  0
   -0.4707   -0.5566    1.5190 H   0  0  0  0  0  0  0  0  0  0  0  0
   -0.2968   -1.5748   -0.3678 C   0  0  0  0  0  0  0  0  0  0  0  0
    1.3964   -0.0289    0.6396 C   0  0  0  0  0  0  0  0  0  0  0  0
    1.9303    0.2904   -0.6297 O   0  0  0  0  0  0  0  0  0  0  0  0
   -2.6929    0.5083    1.0078 H   0  0  0  0  0  0  0  0  0  0  0  0
   -2.8244    1.6757   -0.3088 H   0  0  0  0  0  0  0  0  0  0  0  0
   -2.6968   -0.0415   -0.6698 H   0  0  0  0  0  0  0  0  0  0  0  0
   -0.5532    1.7533    0.5586 H   0  0  0  0  0  0  0  0  0  0  0  0
   -0.5077    1.0613   -1.0613 H   0  0  0  0  0  0  0  0  0  0  0  0
    0.2437   -2.4223    0.0477 H   0  0  0  0  0  0  0  0  0  0  0  0
    0.0846   -1.3772   -1.3665 H   0  0  0  0  0  0  0  0  0  0  0  0
   -1.3475   -1.8389   -0.4351 H   0  0  0  0  0  0  0  0  0  0  0  0
    1.9127   -0.9041    1.0582 H   0  0  0  0  0  0  0  0  0  0  0  0
    1.5320    0.8164    1.3294 H   0  0  0  0  0  0  0  0  0  0  0  0
    2.8747    0.4704   -0.5414 H   0  0  0  0  0  0  0  0  0  0  0  0
  1  2  1  0  0  0  0
  2  3  1  0  0  0  0
  3  4  1  0  0  0  0
  3  5  1  0  0  0  0
  3  6  1  0  0  0  0
  6  7  1  0  0  0  0
  1  8  1  0  0  0  0
  1  9  1  0  0  0  0
  1 10  1  0  0  0  0
  2 11  1  0  0  0  0
  2 12  1  0  0  0  0
  5 13  1  0  0  0  0
  5 14  1  0  0  0  0
  5 15  1  0  0  0  0
  6 16  1  0  0  0  0
  6 17  1  0  0  0  0
  7 18  1  0  0  0  0
M  END
