15
 xtb: 6.7.1 (edcfbbe)
C            2.25502409569957       -0.55045936512638        0.56728773595091
C            1.51327977819773       -0.13847699914890       -0.70129758955456
C            0.55922132020130        1.04237318010464       -0.49949647955261
C           -0.52070883231555        0.83273853519156        0.55393410932027
S           -1.59390306889511       -0.61873751929519        0.10653848356236
H            1.57040323861378       -0.93488879409308        1.33046215792038
H            2.79536224124813        0.29987674656367        0.99911572125740
H            2.98416518534454       -1.33879194261277        0.35503579863727
H            0.96156707062184       -0.99959997956344       -1.10075265157228
H            2.23966739552291        0.14124863931726       -1.47378911212986
H            0.08775619333102        1.30079097885975       -1.45542993941429
H            1.14014367166468        1.92013947120847       -0.18511719726944
H           -0.08342941382105        0.65099870485256        1.53918656882830
H           -1.16041156253048        1.71628875339562        0.61496919659114
H           -2.52025706922000       -0.41918202997093        1.06227739001707
