 xtb: 6.7.1 (edcfbbe)
          04112512423D

 17 16  0     0  0            999 V2000
   -2.8054   -0.1372    0.5626 C   0  0  0  0  0  0  0  0  0  0  0  0
   -1.6892    0.7216   -0.0178 C   0  0  0  0  0  0  0  0  0  0  0  0
   -0.4083   -0.0541   -0.1913 C   0  0  0  0  0  0  0  0  0  0  0  0
   -0.3233   -1.2613   -0.2615 O   0  0  0  0  0  0  0  0  0  0  0  0
    0.6366    0.7635   -0.2880 O   0  0  0  0  0  0  0  0  0  0  0  0
    1.9402    0.1873   -0.4767 C   0  0  0  0  0  0  0  0  0  0  0  0
    2.5659   -0.2069    0.8526 C   0  0  0  0  0  0  0  0  0  0  0  0
   -2.5533   -0.4585    1.5699 H   0  0  0  0  0  0  0  0  0  0  0  0
   -3.7330    0.4257    0.5945 H   0  0  0  0  0  0  0  0  0  0  0  0
   -2.9482   -1.0251   -0.0480 H   0  0  0  0  0  0  0  0  0  0  0  0
   -1.4811    1.5902    0.6067 H   0  0  0  0  0  0  0  0  0  0  0  0
   -1.9714    1.0859   -1.0086 H   0  0  0  0  0  0  0  0  0  0  0  0
    1.8451   -0.6851   -1.1303 H   0  0  0  0  0  0  0  0  0  0  0  0
    2.5162    0.9705   -0.9703 H   0  0  0  0  0  0  0  0  0  0  0  0
    1.9794   -0.9943    1.3208 H   0  0  0  0  0  0  0  0  0  0  0  0
    3.5732   -0.5723    0.6817 H   0  0  0  0  0  0  0  0  0  0  0  0
    2.6027    0.6514    1.5181 H   0  0  0  0  0  0  0  0  0  0  0  0
  1  2  1  0  0  0  0
  2  3  1  0  0  0  0
  3  4  2  0  0  0  0
  3  5  1  0  0  0  0
  5  6  1  0  0  0  0
  6  7  1  0  0  0  0
  1  8  1  0  0  0  0
  1  9  1  0  0  0  0
  1 10  1  0  0  0  0
  2 11  1  0  0  0  0
  2 12  1  0  0  0  0
  6 13  1  0  0  0  0
  6 14  1  0  0  0  0
  7 15  1  0  0  0  0
  7 16  1  0  0  0  0
  7 17  1  0  0  0  0
M  END
