20
 xtb: 6.7.1 (edcfbbe)
C           -2.13387127073449        0.19277076710746        1.32829583459550
C           -1.77103476431238       -0.57864811736164        0.06032365805676
C           -2.90223937661121       -0.50877883645940       -0.96667039384737
C           -0.50865699037736       -0.03494833766168       -0.58237625049624
O            0.59711569493583       -0.22221512623752        0.35434700968677
C            1.79532022384087        0.24494971882074       -0.03354507208834
O            1.97779499555287        0.81295955609361       -1.09995087618768
C            2.86997690643265       -0.03003181278622        0.96848697606243
H           -1.33784678447685        0.14349347755748        2.07717122686034
H           -3.04452589274679       -0.21504655350124        1.77861082302035
H           -2.31663956851342        1.24821237471738        1.09302721534264
H           -1.59331688350201       -1.63146310852951        0.31722602662727
H           -3.82896417431597       -0.90546936249550       -0.54131848792321
H           -2.66571312734932       -1.08708688585453       -1.86587490975892
H           -3.08788209454063        0.52908778420506       -1.26726582217680
H           -0.26671234794287       -0.56724162727145       -1.50808302740130
H           -0.60470506368374        1.03521166970495       -0.79904177009395
H            3.48995486122121        0.86184965471305        1.08244483175070
H            3.50650453369470       -0.82875014489171        0.57237758497251
H            2.46608892938479       -0.34062512683443        1.93195606350025
