  15
 
 C         -0.7304120565       -1.1927191782        0.2284290138
 C          0.7327937715       -1.1578553114       -0.2176689782
 O          1.3817420262        0.0025508433        0.2494697661
 C          0.7284454863        1.1604290273       -0.2179333903
 C         -0.7348832622        1.1898744809        0.2281512275
 N         -1.3844963643       -0.0027068419       -0.2890737333
 H         -0.7633407584       -1.2426220276        1.3311589637
 H         -1.2217680711       -2.0769493037       -0.1817093183
 H          1.2854538926       -2.0046934300        0.1924733442
 H          0.7713095926       -1.1897445939       -1.3166748955
 H          1.2779361017        2.0094108062        0.1920450767
 H          0.7668540249        1.1921899343       -1.3169389804
 H         -0.7679916329        1.2399147794        1.3308691696
 H         -1.2295460790        2.0721320171       -0.1821935037
 H         -2.3699113623       -0.0045372393       -0.0457102050
          15
        -20.13437477
 C         -0.7404921751       -1.1885539358       -0.2309531431
 C          0.7258101264       -1.1677966861        0.2198494094
 O          1.3823456314       -0.0018287221       -0.2328143564
 C          0.7291026582        1.1661059944        0.2194749565
 C         -0.7373822847        1.1904128471       -0.2306336809
 N         -1.4552075033        0.0017623947        0.2029020334
 H         -1.2456462630       -2.0720492824        0.1631240193
 H         -0.7806924306       -1.2134970504       -1.3236263125
 H          0.7744119708       -1.2168134306        1.3211862353
 H          1.2809603905       -2.0082657341       -0.1994401253
 H          0.7783271870        1.2154710593        1.3208495837
 H          1.2863066706        2.0049512343       -0.2004148968
 H         -1.2399560688        2.0749594245        0.1642810118
 H         -0.7781124165        1.2160965779       -1.3232284200
 H         -1.5224222133        0.0016798304        1.2185492774
