 15

C      0.263000    -1.389000    -0.063000
C      1.206000    -0.340000    -0.642000
O      1.098000     0.881000     0.092000
C     -0.237000     1.386000     0.049000
C     -1.207000     0.370000     0.640000
N     -1.122000    -0.907000    -0.076000
H      0.553000    -1.627000     0.967000
H      0.331000    -2.312000    -0.649000
H      2.241000    -0.685000    -0.565000
H      0.996000    -0.149000    -1.701000
H     -0.263000     2.311000     0.633000
H     -0.498000     1.639000    -0.986000
H     -0.978000     0.206000     1.700000
H     -2.230000     0.753000     0.577000
H     -1.725000    -1.593000     0.377000
