21
 xtb: 6.7.1 (edcfbbe)
C            1.88537521511853       -1.05570536138307        0.38675579242390
C            1.28930900662251        0.27979381998378        0.83282444929709
C            0.17264218687434        0.87353764270903       -0.02434317145113
H           -0.06351308180908        1.85528502457732        0.41863382715886
C           -1.17079532507142        0.12283657340467       -0.10980322330399
C           -1.14127366927154       -1.21339258294837       -0.85537214967014
C           -1.79151442234366       -0.04032011585518        1.27729566893517
O            0.72560445058099        1.09342821347268       -1.34318156191471
H            2.13481024345426       -1.05207049119326       -0.67862944794427
H            1.21061873572261       -1.89370343783218        0.57380984171805
H            2.80941552862498       -1.25195470145046        0.94023420527865
H            0.92001039364501        0.19837843731000        1.86121447040324
H            2.08851644412026        1.03125707967829        0.85855196169346
H           -1.82324901613232        0.79826027257499       -0.68531108462642
H           -2.16321720153665       -1.51502783413989       -1.10950642210640
H           -0.57333685702327       -1.14934278082718       -1.78858977699733
H           -0.71024046410437       -2.01094458536277       -0.24448017603292
H           -1.22383326853512       -0.75705839269593        1.88118575968983
H           -2.81701561246286       -0.41540665091593        1.19588355671093
H           -1.82347221604811        0.91191571094831        1.81875314232844
H            0.02223912017930        1.46716289280720       -1.89015055017667
