 xtb: 6.7.1 (edcfbbe)
          04112512013D

 22 22  0     0  0            999 V2000
    3.0260    0.2327   -1.6759 C   0  0  0  0  0  0  0  0  0  0  0  0
    3.5317    0.7712   -0.3358 C   0  0  0  0  0  0  0  0  0  0  0  0
    3.3513   -0.2587    0.7533 C   0  0  0  0  0  0  0  0  0  0  0  0
    4.3035   -0.8337    1.2686 O   0  0  0  0  0  0  0  0  0  0  0  0
    2.0934   -0.6115    1.1192 N   0  0  0  0  0  0  0  0  0  0  0  0
    0.8499   -0.1173    0.7027 C   0  0  0  0  0  0  0  0  0  0  0  0
    0.5445    1.2417    0.7142 C   0  0  0  0  0  0  0  0  0  0  0  0
   -0.7026    1.6802    0.3117 C   0  0  0  0  0  0  0  0  0  0  0  0
   -1.6687    0.7712   -0.0907 C   0  0  0  0  0  0  0  0  0  0  0  0
   -1.3811   -0.5892   -0.0724 C   0  0  0  0  0  0  0  0  0  0  0  0
   -0.1323   -1.0319    0.3241 C   0  0  0  0  0  0  0  0  0  0  0  0
   -2.5856   -1.7425   -0.5469 Cl  0  0  0  0  0  0  0  0  0  0  0  0
   -3.2313    1.3280   -0.5932 Cl  0  0  0  0  0  0  0  0  0  0  0  0
    1.9534    0.0592   -1.6474 H   0  0  0  0  0  0  0  0  0  0  0  0
    3.5254   -0.7020   -1.9197 H   0  0  0  0  0  0  0  0  0  0  0  0
    3.2400    0.9522   -2.4608 H   0  0  0  0  0  0  0  0  0  0  0  0
    3.0147    1.6950   -0.0907 H   0  0  0  0  0  0  0  0  0  0  0  0
    4.6011    0.9759   -0.4017 H   0  0  0  0  0  0  0  0  0  0  0  0
    2.0610   -1.4447    1.6970 H   0  0  0  0  0  0  0  0  0  0  0  0
    1.2680    1.9585    1.0632 H   0  0  0  0  0  0  0  0  0  0  0  0
   -0.9393    2.7310    0.3185 H   0  0  0  0  0  0  0  0  0  0  0  0
    0.0763   -2.0892    0.3304 H   0  0  0  0  0  0  0  0  0  0  0  0
  1  2  1  0  0  0  0
  2  3  1  0  0  0  0
  3  4  2  0  0  0  0
  3  5  4  0  0  0  0
  5  6  1  0  0  0  0
  6  7  4  0  0  0  0
  7  8  4  0  0  0  0
  8  9  4  0  0  0  0
  9 10  4  0  0  0  0
  6 11  4  0  0  0  0
 10 11  4  0  0  0  0
 10 12  1  0  0  0  0
  9 13  1  0  0  0  0
  1 14  1  0  0  0  0
  1 15  1  0  0  0  0
  1 16  1  0  0  0  0
  2 17  1  0  0  0  0
  2 18  1  0  0  0  0
  5 19  1  0  0  0  0
  7 20  1  0  0  0  0
  8 21  1  0  0  0  0
 11 22  1  0  0  0  0
M  END
