 xtb: 6.7.1 (edcfbbe)
          04112511553D

 24 24  0     0  0            999 V2000
   -2.9059    0.5593   -0.6226 C   0  0  0  0  0  0  0  0  0  0  0  0
   -1.8443   -0.5235   -0.4552 C   0  0  0  0  0  0  0  0  0  0  0  0
   -1.1850   -0.4906    0.9344 C   0  0  0  0  0  0  0  0  0  0  0  0
    0.3172   -0.1884    0.9270 C   0  0  0  0  0  0  0  0  0  0  0  0
    1.1538   -1.2053    0.1169 C   0  0  0  0  0  0  0  0  0  0  0  0
    1.9684   -0.3846   -0.8901 C   0  0  0  0  0  0  0  0  0  0  0  0
    2.0623    0.9981   -0.2507 C   0  0  0  0  0  0  0  0  0  0  0  0
    0.6692    1.1876    0.3407 C   0  0  0  0  0  0  0  0  0  0  0  0
   -2.4745    1.5478   -0.4809 H   0  0  0  0  0  0  0  0  0  0  0  0
   -3.3423    0.5146   -1.6182 H   0  0  0  0  0  0  0  0  0  0  0  0
   -3.7029    0.4274    0.1060 H   0  0  0  0  0  0  0  0  0  0  0  0
   -2.3121   -1.4963   -0.6188 H   0  0  0  0  0  0  0  0  0  0  0  0
   -1.0872   -0.3981   -1.2299 H   0  0  0  0  0  0  0  0  0  0  0  0
   -1.6783    0.2666    1.5476 H   0  0  0  0  0  0  0  0  0  0  0  0
   -1.3308   -1.4508    1.4337 H   0  0  0  0  0  0  0  0  0  0  0  0
    0.6525   -0.2127    1.9693 H   0  0  0  0  0  0  0  0  0  0  0  0
    1.8223   -1.7517    0.7827 H   0  0  0  0  0  0  0  0  0  0  0  0
    0.5200   -1.9356   -0.3834 H   0  0  0  0  0  0  0  0  0  0  0  0
    2.9459   -0.8232   -1.0864 H   0  0  0  0  0  0  0  0  0  0  0  0
    1.4340   -0.3108   -1.8389 H   0  0  0  0  0  0  0  0  0  0  0  0
    2.8091    0.9905    0.5452 H   0  0  0  0  0  0  0  0  0  0  0  0
    2.3264    1.7759   -0.9660 H   0  0  0  0  0  0  0  0  0  0  0  0
    0.6350    1.9724    1.0953 H   0  0  0  0  0  0  0  0  0  0  0  0
   -0.0279    1.4494   -0.4548 H   0  0  0  0  0  0  0  0  0  0  0  0
  1  2  1  0  0  0  0
  2  3  1  0  0  0  0
  3  4  1  0  0  0  0
  4  5  1  0  0  0  0
  5  6  1  0  0  0  0
  6  7  1  0  0  0  0
  4  8  1  0  0  0  0
  7  8  1  0  0  0  0
  1  9  1  0  0  0  0
  1 10  1  0  0  0  0
  1 11  1  0  0  0  0
  2 12  1  0  0  0  0
  2 13  1  0  0  0  0
  3 14  1  0  0  0  0
  3 15  1  0  0  0  0
  4 16  1  0  0  0  0
  5 17  1  0  0  0  0
  5 18  1  0  0  0  0
  6 19  1  0  0  0  0
  6 20  1  0  0  0  0
  7 21  1  0  0  0  0
  7 22  1  0  0  0  0
  8 23  1  0  0  0  0
  8 24  1  0  0  0  0
M  END
