  14
 
 C         -1.4498932775        0.5495620501       -1.3450662069
 C         -1.0116681743        0.0004321310        0.0013185773
 C         -1.4567982912       -1.4386035665        0.1945321551
 C         -1.4647390702        0.8889119410        1.1465773243
 Br         0.9962984795        0.0018409489        0.0156049645
 H         -1.0842571313        1.5649806169       -1.4872076497
 H         -1.0724441318       -0.0688731499       -2.1575076083
 H         -2.5383140773        0.5633380298       -1.3979378948
 H         -1.0926252279       -1.8333780521        1.1413717507
 H         -2.5454228211       -1.4878480556        0.1953232240
 H         -1.0829532288       -2.0711971137       -0.6086006808
 H         -1.1044442933        0.5065072189        2.0999750952
 H         -2.5536329634        0.9208368036        1.1760859373
 H         -1.0927494539        1.9041374776        1.0202834200
          14
        -17.24851321
 C         -1.4611243655       -0.8210525058       -1.1975076613
 C         -1.0155843665        0.0000168527       -0.0000063346
 C         -1.4611288307       -0.6265928767        1.3097722389
 C         -1.4610902716        1.4476422544       -0.1122671138
 Br         0.9907251990       -0.0000039483        0.0000002072
 H         -2.5495254152       -0.8476389261       -1.2370060416
 H         -1.0923059556       -0.3864831367       -2.1246676143
 H         -1.0929538209       -1.8427511992       -1.1260572381
 H         -2.5495416556       -0.6471275773        1.3527848823
 H         -1.0925753843       -1.6468901178        1.3969099815
 H         -1.0925659653       -0.0540574543        2.1588242632
 H         -1.0924407964        1.8967972201       -1.0325248448
 H         -1.0927809137        2.0331873155        0.7279598830
 H         -2.5494812232        1.4951133354       -0.1161339826
