  14
 
 C          0.2700000000       -1.1200000000        0.8960000000
 C          0.0170000000        0.2360000000        0.2410000000
 C         -1.3790000000        0.2970000000       -0.3750000000
 C          1.0910000000        0.5550000000       -0.7950000000
 Br         0.1130000000        1.6120000000        1.6510000000
 H          1.2700000000       -1.1720000000        1.3410000000
 H         -0.4550000000       -1.3240000000        1.6940000000
 H          0.1910000000       -1.9300000000        0.1620000000
 H         -1.5690000000        1.2680000000       -0.8480000000
 H         -1.5150000000       -0.4730000000       -1.1430000000
 H         -2.1510000000        0.1440000000        0.3880000000
 H          0.9160000000        1.5280000000       -1.2700000000
 H          1.1200000000       -0.1980000000       -1.5910000000
 H          2.0840000000        0.5860000000       -0.3320000000
