 xtb: 6.7.1 (edcfbbe)
          04112511193D

 14 13  0     0  0            999 V2000
   -1.1733    0.2092   -0.3922 C   0  0  0  0  0  0  0  0  0  0  0  0
   -0.0040    0.6720    0.4988 C   0  0  0  0  0  0  0  0  0  0  0  0
    1.0918   -0.4030    0.6018 C   0  0  0  0  0  0  0  0  0  0  0  0
    1.1377   -1.1798   -0.5769 O   0  0  0  0  0  0  0  0  0  0  0  0
    0.5927    1.8403   -0.0239 O   0  0  0  0  0  0  0  0  0  0  0  0
   -1.7022   -1.0315    0.0021 O   0  0  0  0  0  0  0  0  0  0  0  0
   -0.8203    0.1748   -1.4296 H   0  0  0  0  0  0  0  0  0  0  0  0
   -1.9952    0.9261   -0.3171 H   0  0  0  0  0  0  0  0  0  0  0  0
   -0.3774    0.8669    1.5159 H   0  0  0  0  0  0  0  0  0  0  0  0
    0.8808   -1.0457    1.4661 H   0  0  0  0  0  0  0  0  0  0  0  0
    2.0375    0.1227    0.7671 H   0  0  0  0  0  0  0  0  0  0  0  0
    1.9680   -1.6728   -0.6023 H   0  0  0  0  0  0  0  0  0  0  0  0
   -0.0758    2.5314   -0.1253 H   0  0  0  0  0  0  0  0  0  0  0  0
   -1.0469   -1.7122   -0.2125 H   0  0  0  0  0  0  0  0  0  0  0  0
  1  2  1  0  0  0  0
  2  3  1  0  0  0  0
  3  4  1  0  0  0  0
  2  5  1  0  0  0  0
  1  6  1  0  0  0  0
  1  7  1  0  0  0  0
  1  8  1  0  0  0  0
  2  9  1  0  0  0  0
  3 10  1  0  0  0  0
  3 11  1  0  0  0  0
  4 12  1  0  0  0  0
  5 13  1  0  0  0  0
  6 14  1  0  0  0  0
M  END
