 xtb: 6.7.1 (edcfbbe)
          04072508503D

 19 19  0     0  0            999 V2000
   -2.6307   -0.2861   -0.2576 C   0  0  0  0  0  0  0  0  0  0  0  0
   -1.6252   -1.2294   -0.3837 C   0  0  0  0  0  0  0  0  0  0  0  0
   -0.3114   -0.8892   -0.1135 C   0  0  0  0  0  0  0  0  0  0  0  0
    0.0187    0.4025    0.2795 C   0  0  0  0  0  0  0  0  0  0  0  0
   -0.9974    1.3434    0.3975 C   0  0  0  0  0  0  0  0  0  0  0  0
   -2.3126    1.0030    0.1345 C   0  0  0  0  0  0  0  0  0  0  0  0
    1.4419    0.7864    0.5870 C   0  0  0  0  0  0  0  0  0  0  0  0
    2.4678    0.2271   -0.4088 C   0  0  0  0  0  0  0  0  0  0  0  0
    2.7773   -1.1365   -0.2146 O   0  0  0  0  0  0  0  0  0  0  0  0
   -3.6562   -0.5532   -0.4654 H   0  0  0  0  0  0  0  0  0  0  0  0
   -1.8647   -2.2364   -0.6923 H   0  0  0  0  0  0  0  0  0  0  0  0
    0.4673   -1.6289   -0.2207 H   0  0  0  0  0  0  0  0  0  0  0  0
   -0.7572    2.3529    0.6996 H   0  0  0  0  0  0  0  0  0  0  0  0
   -3.0902    1.7461    0.2328 H   0  0  0  0  0  0  0  0  0  0  0  0
    1.5251    1.8742    0.5882 H   0  0  0  0  0  0  0  0  0  0  0  0
    1.6975    0.4331    1.5906 H   0  0  0  0  0  0  0  0  0  0  0  0
    2.0756    0.2944   -1.4265 H   0  0  0  0  0  0  0  0  0  0  0  0
    3.3872    0.8253   -0.3530 H   0  0  0  0  0  0  0  0  0  0  0  0
    3.1884   -1.2456    0.6543 H   0  0  0  0  0  0  0  0  0  0  0  0
  1  2  4  0  0  0  0
  2  3  4  0  0  0  0
  3  4  4  0  0  0  0
  4  5  4  0  0  0  0
  1  6  4  0  0  0  0
  5  6  4  0  0  0  0
  4  7  1  0  0  0  0
  7  8  1  0  0  0  0
  8  9  1  0  0  0  0
  1 10  1  0  0  0  0
  2 11  1  0  0  0  0
  3 12  1  0  0  0  0
  5 13  1  0  0  0  0
  6 14  1  0  0  0  0
  7 15  1  0  0  0  0
  7 16  1  0  0  0  0
  8 17  1  0  0  0  0
  8 18  1  0  0  0  0
  9 19  1  0  0  0  0
M  END
