26
CONF2
C 4.1510015074 0.0671906002 -0.4617405163
N 2.7260077502 -0.1831215100 -0.4874758733
C 2.2903249903 -1.0961733294 -1.5188858142
C 1.9290971091 0.3692036773 0.4384268631
O 2.3743166193 1.0561891987 1.3659261049
C 0.4581832794 0.1454963535 0.3157192280
C -0.2510865133 0.5671772229 -0.8017442377
C -1.6271597453 0.4332970993 -0.8630244483
C -2.3174133585 -0.1344810046 0.2036047872
C -1.6076127938 -0.5476190207 1.3338013319
C -0.2400414882 -0.3960211933 1.3921782991
O -3.6632218018 -0.3243624646 0.2480810945
C -4.4461444458 0.0791871734 -0.8613496566
H 4.3589276201 0.7890277097 0.3254029160
H 4.4710521514 0.4686460858 -1.4234262126
H 4.6942285763 -0.8564947280 -0.2572797908
H 1.2700957473 -1.4197659177 -1.3359500087
H 2.9462933232 -1.9675553959 -1.5175398493
H 2.3494434523 -0.6178390298 -2.4985392830
H 0.2714655395 1.0208831905 -1.6298864760
H -2.1474144436 0.7770468699 -1.7417895155
H -2.1573906975 -0.9765744444 2.1560559693
H 0.3045654059 -0.6991959917 2.2735775211
H -4.3635038325 1.1554763978 -1.0313312759
H -5.4699045824 -0.1711526058 -0.5932836068
H -4.1587505191 -0.4644144052 -1.7646008729
26
CONF1
C 4.1951448189 -0.1266865992 -0.1171952064
N 2.7712132672 -0.3554186404 -0.2356070394
C 2.4098005912 -1.5831853666 -0.9059243453
C 1.9032455890 0.5660177571 0.2059027161
O 2.2742760302 1.6522453024 0.6679130533
C 0.4475818242 0.2427358858 0.1401215455
C -0.4131262575 1.1221660107 -0.5018501687
C -1.7782518910 0.8973843449 -0.5253234492
C -2.3069071539 -0.2122827937 0.1265898027
C -1.4462225534 -1.0844784619 0.7981001144
C -0.0872492182 -0.8608944447 0.8031129662
O -3.6278296702 -0.5317086807 0.1755780592
C -4.5596650639 0.3155405875 -0.4717692614
H 4.6487565376 -0.0410225967 -1.1056514027
H 4.6566096096 -0.9548987046 0.4208704134
H 4.3500393282 0.7999516002 0.4316325759
H 1.3558584560 -1.5804678476 -1.1670096931
H 2.6221627663 -2.4417840855 -0.2658759884
H 3.0027907079 -1.6739960958 -1.8168929670
H -0.0032034166 1.9926119811 -0.9922220673
H -2.4148359244 1.5952253245 -1.0439064180
H -1.8746861827 -1.9303339956 1.3111090102
H 0.5628637077 -1.5350310521 1.3386120294
H -5.5308393678 -0.1400513168 -0.2932187691
H -4.3677336174 0.3643280360 -1.5464598354
H -4.5409930816 1.3213256051 -0.0447943755
26
CONF3
C 4.1774859556 -0.2441232619 -0.0596172251
N 2.7460367204 -0.4203735555 0.0532175726
C 2.3206838748 -1.7570810887 0.3959721873
C 1.9166975129 0.6083056904 -0.1566034495
O 2.3175011482 1.7388286484 -0.4529118251
C 0.4491470083 0.3393674161 -0.0171793620
C -0.1867234368 0.5282524095 1.2067516356
C -1.5486349413 0.3495582029 1.3179898375
C -2.3085316473 -0.0152331862 0.2043316648
C -1.6768481975 -0.1942148332 -1.0218013127
C -0.3078935783 -0.0120256313 -1.1249571425
O -3.6433867253 -0.1679234448 0.4235811372
C -4.4752157451 -0.5291517087 -0.6638879261
H 4.3756701808 0.7944372870 -0.3166319494
H 4.5733127553 -0.8955046015 -0.8394249948
H 4.6584347794 -0.4841710799 0.8890619107
H 2.7539483373 -2.0439446547 1.3555042098
H 2.6650156925 -2.4571291704 -0.3671097581
H 1.2378993697 -1.8036064830 0.4636037991
H 0.3917303973 0.8178775337 2.0707325273
H -2.0547942925 0.4904447383 2.2593797388
H -2.2351208361 -0.4694169717 -1.9013777394
H 0.1757746519 -0.1446266322 -2.0811017819
H -4.1915509169 -1.5030039280 -1.0705599614
H -4.4441501028 0.2268855211 -1.4524207504
H -5.4788481844 -0.5837557297 -0.2488724741
