26
CONF2
C 4.1524423191 0.1525332241 -0.4562118564
N 2.7202629840 -0.1251041735 -0.5586685736
C 2.3412663553 -1.0372325503 -1.6384369174
C 1.9201776505 0.2203317092 0.4752110473
O 2.3889938152 0.7140887712 1.5252392318
C 0.4458073190 0.0522970657 0.3417499537
C -0.2554922666 0.4482044872 -0.7982604384
C -1.6442257752 0.3750481076 -0.8524423345
C -2.3461215879 -0.1207680528 0.2492742205
C -1.6551983563 -0.5175970677 1.4013255430
C -0.2769562093 -0.4158737375 1.4475461320
O -3.7044737995 -0.2515993036 0.3000978918
C -4.4523667805 0.1359539192 -0.8649723430
H 4.3178965833 1.1241791356 0.0124994323
H 4.5757724991 0.1669092229 -1.4636337663
H 4.6687891831 -0.6168417437 0.1323566417
H 1.3460911980 -1.4458983957 -1.4707305817
H 3.0540557473 -1.8694766025 -1.6635386041
H 2.3649759883 -0.5318556172 -2.6101037635
H 0.2784434931 0.8402939376 -1.6579534040
H -2.1588842557 0.7069719950 -1.7454191324
H -2.2159912829 -0.8976437337 2.2490880347
H 0.2544201315 -0.7126143531 2.3462530746
H -4.3230645923 1.2032030118 -1.0757487525
H -5.4962864785 -0.0654976846 -0.6234841952
H -4.1549361306 -0.4578905764 -1.7360185549
26
CONF1
C 4.2080616211 -0.0865350554 -0.0389594854
N 2.7866686821 -0.4083567654 -0.1595429545
C 2.4913341444 -1.6767955884 -0.8272409410
C 1.8813712451 0.5705041617 0.0671269659
O 2.2379517559 1.7424256680 0.3219322579
C 0.4300500581 0.2329689611 0.0508426739
C -0.4549632294 1.1254106145 -0.5560732239
C -1.8284867740 0.9065482127 -0.5402118914
C -2.3320737196 -0.2156912498 0.1238887962
C -1.4576993214 -1.1072636217 0.7571806846
C -0.0918706965 -0.8873848191 0.7118357652
O -3.6590929936 -0.5239627505 0.2143652082
C -4.5921970400 0.3733164619 -0.4108866831
H 4.5870291571 0.3973420372 -0.9480761582
H 4.7617136151 -1.0146125054 0.1220085868
H 4.3745043846 0.5789956036 0.8093658459
H 1.4563292196 -1.7061854349 -1.1650343547
H 2.6786563952 -2.5270521400 -0.1618885861
H 3.1413015498 -1.7732442916 -1.7046576523
H -0.0637666933 2.0039419853 -1.0598514040
H -2.4853325361 1.6095877509 -1.0369924601
H -1.8658139304 -1.9643180732 1.2830723612
H 0.5716271621 -1.5845933487 1.2133744374
H -5.5789965628 -0.0485755593 -0.2180003249
H -4.4198581105 0.4266598731 -1.4914724039
H -4.5276621388 1.3742577204 0.0296639382
26
CONF3
C 4.1965209442 -0.2365549399 -0.0668582704
N 2.7518985176 -0.4152736881 0.0484445202
C 2.3319272509 -1.7694137542 0.3990889473
C 1.9067278985 0.6125768586 -0.1615791227
O 2.2922386225 1.7616964984 -0.4627111784
C 0.4393889643 0.3481987837 -0.0180006667
C -0.1900776408 0.5350549270 1.2160705714
C -1.5594255736 0.3607539240 1.3374395687
C -2.3193954910 -0.0034800877 0.2202512052
C -1.7015764361 -0.1884316397 -1.0182793815
C -0.3235438199 -0.0090594524 -1.1258472616
O -3.6625614497 -0.1570913041 0.4423189354
C -4.4777298979 -0.5297842759 -0.6805563046
H 4.4258222177 0.7959972507 -0.3254756869
H 4.5924713939 -0.9011173792 -0.8427336642
H 4.6781237622 -0.4885521085 0.8843800187
H 2.7699490634 -2.0556034222 1.3620062322
H 2.6795203485 -2.4753830175 -0.3637094362
H 1.2474503447 -1.8324912951 0.4710710891
H 0.3973677435 0.8126418136 2.0863328170
H -2.0555918522 0.5008683895 2.2923549297
H -2.2697959617 -0.4707003647 -1.8957395477
H 0.1579121337 -0.1578507755 -2.0880362131
H -4.1731819218 -1.5033080669 -1.0806251449
H -4.4309426941 0.2303024839 -1.4683060875
H -5.4958639898 -0.5953242731 -0.2956331099
