 xtb: 6.7.1 (edcfbbe)
          04112510353D

 18 17  0     0  0            999 V2000
   -2.7762    0.0040   -0.0020 C   0  0  0  0  0  0  0  0  0  0  0  0
   -1.3614    0.3979   -0.4102 C   0  0  0  0  0  0  0  0  0  0  0  0
   -0.3174   -0.2495    0.5021 C   0  0  0  0  0  0  0  0  0  0  0  0
    1.1098   -0.0117    0.0744 C   0  0  0  0  0  0  0  0  0  0  0  0
    1.5595    1.1661   -0.3291 C   0  0  0  0  0  0  0  0  0  0  0  0
    2.0039   -1.2121    0.1578 C   0  0  0  0  0  0  0  0  0  0  0  0
   -3.5069    0.4757   -0.6545 H   0  0  0  0  0  0  0  0  0  0  0  0
   -2.9772    0.3148    1.0210 H   0  0  0  0  0  0  0  0  0  0  0  0
   -2.9062   -1.0742   -0.0639 H   0  0  0  0  0  0  0  0  0  0  0  0
   -1.1765    0.0869   -1.4408 H   0  0  0  0  0  0  0  0  0  0  0  0
   -1.2667    1.4837   -0.3700 H   0  0  0  0  0  0  0  0  0  0  0  0
   -0.4500    0.1325    1.5190 H   0  0  0  0  0  0  0  0  0  0  0  0
   -0.5017   -1.3255    0.5336 H   0  0  0  0  0  0  0  0  0  0  0  0
    2.5864    1.3074   -0.6218 H   0  0  0  0  0  0  0  0  0  0  0  0
    0.9310    2.0376   -0.3855 H   0  0  0  0  0  0  0  0  0  0  0  0
    1.9946   -1.6143    1.1700 H   0  0  0  0  0  0  0  0  0  0  0  0
    1.6455   -1.9920   -0.5130 H   0  0  0  0  0  0  0  0  0  0  0  0
    3.0262   -0.9611   -0.1118 H   0  0  0  0  0  0  0  0  0  0  0  0
  1  2  1  0  0  0  0
  2  3  1  0  0  0  0
  3  4  1  0  0  0  0
  4  5  2  0  0  0  0
  4  6  1  0  0  0  0
  1  7  1  0  0  0  0
  1  8  1  0  0  0  0
  1  9  1  0  0  0  0
  2 10  1  0  0  0  0
  2 11  1  0  0  0  0
  3 12  1  0  0  0  0
  3 13  1  0  0  0  0
  5 14  1  0  0  0  0
  5 15  1  0  0  0  0
  6 16  1  0  0  0  0
  6 17  1  0  0  0  0
  6 18  1  0  0  0  0
M  END
