 xtb: 6.7.1 (edcfbbe)
          04112511373D

 21 20  0     0  0            999 V2000
   -3.0141    0.2707   -0.2072 C   0  0  0  0  0  0  0  0  0  0  0  0
   -1.5658    0.1961   -0.6796 C   0  0  0  0  0  0  0  0  0  0  0  0
   -0.6156    0.0150    0.5017 C   0  0  0  0  0  0  0  0  0  0  0  0
    0.8807   -0.0914    0.1472 C   0  0  0  0  0  0  0  0  0  0  0  0
    1.3836    1.1620   -0.5706 C   0  0  0  0  0  0  0  0  0  0  0  0
    1.1700   -1.3377   -0.6967 C   0  0  0  0  0  0  0  0  0  0  0  0
    1.6282   -0.1551    1.3644 O   0  0  0  0  0  0  0  0  0  0  0  0
   -3.1505    1.1084    0.4730 H   0  0  0  0  0  0  0  0  0  0  0  0
   -3.2943   -0.6419    0.3141 H   0  0  0  0  0  0  0  0  0  0  0  0
   -3.6840    0.4023   -1.0533 H   0  0  0  0  0  0  0  0  0  0  0  0
   -1.4597   -0.6405   -1.3714 H   0  0  0  0  0  0  0  0  0  0  0  0
   -1.3191    1.1130   -1.2157 H   0  0  0  0  0  0  0  0  0  0  0  0
   -0.7318    0.8588    1.1871 H   0  0  0  0  0  0  0  0  0  0  0  0
   -0.9032   -0.8901    1.0450 H   0  0  0  0  0  0  0  0  0  0  0  0
    1.1313    2.0463    0.0083 H   0  0  0  0  0  0  0  0  0  0  0  0
    0.9497    1.2400   -1.5615 H   0  0  0  0  0  0  0  0  0  0  0  0
    2.4656    1.1092   -0.6589 H   0  0  0  0  0  0  0  0  0  0  0  0
    0.7451   -1.2340   -1.6898 H   0  0  0  0  0  0  0  0  0  0  0  0
    0.7517   -2.2254   -0.2267 H   0  0  0  0  0  0  0  0  0  0  0  0
    2.2457   -1.4665   -0.7915 H   0  0  0  0  0  0  0  0  0  0  0  0
    1.3746   -0.9517    1.8493 H   0  0  0  0  0  0  0  0  0  0  0  0
  1  2  1  0  0  0  0
  2  3  1  0  0  0  0
  3  4  1  0  0  0  0
  4  5  1  0  0  0  0
  4  6  1  0  0  0  0
  4  7  1  0  0  0  0
  1  8  1  0  0  0  0
  1  9  1  0  0  0  0
  1 10  1  0  0  0  0
  2 11  1  0  0  0  0
  2 12  1  0  0  0  0
  3 13  1  0  0  0  0
  3 14  1  0  0  0  0
  5 15  1  0  0  0  0
  5 16  1  0  0  0  0
  5 17  1  0  0  0  0
  6 18  1  0  0  0  0
  6 19  1  0  0  0  0
  6 20  1  0  0  0  0
  7 21  1  0  0  0  0
M  END
