 xtb: 6.7.1 (edcfbbe)
          04112512193D

 24 24  0     0  0            999 V2000
    1.9960    1.1204   -1.0466 C   0  0  0  0  0  0  0  0  0  0  0  0
    2.0985   -0.2069   -0.3003 C   0  0  0  0  0  0  0  0  0  0  0  0
    3.5338   -0.4503    0.1599 C   0  0  0  0  0  0  0  0  0  0  0  0
    1.1452   -0.2308    0.9075 C   0  0  0  0  0  0  0  0  0  0  0  0
   -0.2927   -0.1377    0.4872 C   0  0  0  0  0  0  0  0  0  0  0  0
   -1.0023    1.0502    0.6096 C   0  0  0  0  0  0  0  0  0  0  0  0
   -2.3191    1.1352    0.1917 C   0  0  0  0  0  0  0  0  0  0  0  0
   -2.9463    0.0301   -0.3574 C   0  0  0  0  0  0  0  0  0  0  0  0
   -2.2495   -1.1604   -0.4826 C   0  0  0  0  0  0  0  0  0  0  0  0
   -0.9343   -1.2417   -0.0628 C   0  0  0  0  0  0  0  0  0  0  0  0
    2.2792    1.9439   -0.3944 H   0  0  0  0  0  0  0  0  0  0  0  0
    0.9786    1.2879   -1.3928 H   0  0  0  0  0  0  0  0  0  0  0  0
    2.6581    1.1227   -1.9092 H   0  0  0  0  0  0  0  0  0  0  0  0
    1.8065   -1.0122   -0.9836 H   0  0  0  0  0  0  0  0  0  0  0  0
    3.8472    0.3311    0.8488 H   0  0  0  0  0  0  0  0  0  0  0  0
    3.6200   -1.4094    0.6655 H   0  0  0  0  0  0  0  0  0  0  0  0
    4.2107   -0.4489   -0.6912 H   0  0  0  0  0  0  0  0  0  0  0  0
    1.3932    0.6003    1.5703 H   0  0  0  0  0  0  0  0  0  0  0  0
    1.3010   -1.1629    1.4557 H   0  0  0  0  0  0  0  0  0  0  0  0
   -0.5194    1.9172    1.0371 H   0  0  0  0  0  0  0  0  0  0  0  0
   -2.8569    2.0663    0.2945 H   0  0  0  0  0  0  0  0  0  0  0  0
   -3.9735    0.0949   -0.6841 H   0  0  0  0  0  0  0  0  0  0  0  0
   -2.7339   -2.0275   -0.9073 H   0  0  0  0  0  0  0  0  0  0  0  0
   -0.3969   -2.1744   -0.1594 H   0  0  0  0  0  0  0  0  0  0  0  0
  1  2  1  0  0  0  0
  2  3  1  0  0  0  0
  2  4  1  0  0  0  0
  4  5  1  0  0  0  0
  5  6  4  0  0  0  0
  6  7  4  0  0  0  0
  7  8  4  0  0  0  0
  8  9  4  0  0  0  0
  5 10  4  0  0  0  0
  9 10  4  0  0  0  0
  1 11  1  0  0  0  0
  1 12  1  0  0  0  0
  1 13  1  0  0  0  0
  2 14  1  0  0  0  0
  3 15  1  0  0  0  0
  3 16  1  0  0  0  0
  3 17  1  0  0  0  0
  4 18  1  0  0  0  0
  4 19  1  0  0  0  0
  6 20  1  0  0  0  0
  7 21  1  0  0  0  0
  8 22  1  0  0  0  0
  9 23  1  0  0  0  0
 10 24  1  0  0  0  0
M  END
