 xtb: 6.7.1 (edcfbbe)
          04112512103D

 18 17  0     0  0            999 V2000
    1.5012   -1.4393   -0.0554 C   0  0  0  0  0  0  0  0  0  0  0  0
    1.1962   -0.0304    0.4509 C   0  0  0  0  0  0  0  0  0  0  0  0
    1.7375    1.0154   -0.5225 C   0  0  0  0  0  0  0  0  0  0  0  0
   -0.2964    0.1688    0.7432 C   0  0  0  0  0  0  0  0  0  0  0  0
   -1.2235    0.0324   -0.4620 C   0  0  0  0  0  0  0  0  0  0  0  0
   -2.5513    0.2451   -0.0121 O   0  0  0  0  0  0  0  0  0  0  0  0
    2.5765   -1.5917   -0.1083 H   0  0  0  0  0  0  0  0  0  0  0  0
    1.0894   -1.5917   -1.0498 H   0  0  0  0  0  0  0  0  0  0  0  0
    1.0809   -2.1862    0.6136 H   0  0  0  0  0  0  0  0  0  0  0  0
    1.7147    0.1017    1.4078 H   0  0  0  0  0  0  0  0  0  0  0  0
    1.3286    0.8665   -1.5186 H   0  0  0  0  0  0  0  0  0  0  0  0
    2.8203    0.9393   -0.5872 H   0  0  0  0  0  0  0  0  0  0  0  0
    1.4830    2.0182   -0.1881 H   0  0  0  0  0  0  0  0  0  0  0  0
   -0.4529    1.1626    1.1687 H   0  0  0  0  0  0  0  0  0  0  0  0
   -0.6193   -0.5582    1.4916 H   0  0  0  0  0  0  0  0  0  0  0  0
   -0.9662    0.7771   -1.2251 H   0  0  0  0  0  0  0  0  0  0  0  0
   -1.1351   -0.9705   -0.8975 H   0  0  0  0  0  0  0  0  0  0  0  0
   -3.1591    0.1636   -0.7588 H   0  0  0  0  0  0  0  0  0  0  0  0
  1  2  1  0  0  0  0
  2  3  1  0  0  0  0
  2  4  1  0  0  0  0
  4  5  1  0  0  0  0
  5  6  1  0  0  0  0
  1  7  1  0  0  0  0
  1  8  1  0  0  0  0
  1  9  1  0  0  0  0
  2 10  1  0  0  0  0
  3 11  1  0  0  0  0
  3 12  1  0  0  0  0
  3 13  1  0  0  0  0
  4 14  1  0  0  0  0
  4 15  1  0  0  0  0
  5 16  1  0  0  0  0
  5 17  1  0  0  0  0
  6 18  1  0  0  0  0
M  END
