  19
 
 C         -2.9878940675       -0.6390089760       -0.7307586472
 C         -2.2716061112       -0.3504567813        0.5902335431
 C         -0.8563363422        0.0848956778        0.3376538828
 C         -0.5523770188        1.4273589503        0.1405707348
 C          0.7458379158        1.8183734724       -0.1278426588
 C          1.7592884906        0.8795447428       -0.2059825149
 C          1.4650575893       -0.4641718185       -0.0144336509
 C          0.1582231282       -0.8544706091        0.2551333403
 O          2.4222332068       -1.4318892598       -0.0794373425
 H         -4.0134004752       -0.9519118693       -0.5475060591
 H         -2.4742115025       -1.4292985937       -1.2732473921
 H         -3.0019918301        0.2511789492       -1.3556034873
 H         -2.2764854321       -1.2518057497        1.2057199983
 H         -2.8092545583        0.4338310190        1.1267639092
 H         -1.3365285066        2.1676730972        0.2018249252
 H          0.9762310243        2.8633181168       -0.2763616777
 H          2.7764980723        1.1860946664       -0.4130555671
 H         -0.0439126339       -1.9043639711        0.4016890874
 H          3.2787119539       -1.0290089056       -0.2660161744
          19
        -26.28934977
 C         -2.9706138760        0.6461967082       -0.7517016265
 C         -2.2695260401        0.3503058993        0.5755418583
 C         -0.8522459806       -0.0846134148        0.3332561522
 C         -0.5468722502       -1.4266133851        0.1370413477
 C          0.7524144138       -1.8165297974       -0.1279295288
 C          1.7646672847       -0.8765515746       -0.2035164216
 C          1.4694070794        0.4669468795       -0.0111078931
 C          0.1618654288        0.8558384256        0.2553474938
 O          2.4270541630        1.4343464450       -0.0736544951
 H         -2.4483830995        1.4367037575       -1.2856824514
 H         -3.9970715761        0.9617031464       -0.5788775207
 H         -2.9804707603       -0.2416042554       -1.3800242286
 H         -2.8131450949       -0.4367304456        1.1020224758
 H         -2.2802726650        1.2482908595        1.1960172466
 H         -1.3306030454       -2.1674243753        0.1953660852
 H          0.9840495835       -2.8610031006       -0.2768850689
 H          2.7823496493       -1.1820253929       -0.4097029888
 H         -0.0430460585        1.9051217420        0.4023517227
 H          3.2832919943        1.0316756956       -0.2613658066
