 26

C      1.022000    -1.625000     5.747000
C      0.362000    -2.109000     4.456000
H      0.247000    -3.199000     4.479000
C      1.087000    -1.663000     3.171000
H      1.098000    -0.567000     3.156000
C      0.437000    -2.191000     1.881000
H     -0.596000    -1.829000     1.815000
C      1.173000    -1.766000     0.595000
H      2.206000    -2.134000     0.597000
C      0.473000    -2.184000    -0.696000
O      1.249000    -1.734000    -1.804000
O      1.257000    -0.335000     0.578000
O      0.379000    -3.615000     1.944000
O      2.447000    -2.095000     3.212000
O     -0.964000    -1.566000     4.435000
O      0.499000    -2.353000     6.856000
H      0.809000    -0.568000     5.931000
H      2.105000    -1.771000     5.738000
H     -0.519000    -1.734000    -0.783000
H      0.389000    -3.273000    -0.771000
H      0.778000    -2.015000    -2.603000
H      1.722000    -0.103000    -0.238000
H      1.294000    -3.924000     2.028000
H      2.425000    -3.061000     3.279000
H     -1.407000    -1.909000     5.224000
H      0.946000    -2.011000     7.646000
