  26
 
 C         -0.0063756216       -2.5361745490       -0.0020642620
 C         -0.0030963553       -1.2031478713       -0.0006696729
 C         -1.2562307733       -0.4277351998       -0.0203153478
 C         -1.3782829022        0.7230414870        0.7561708663
 C         -2.5539808165        1.4494138586        0.7570111660
 C         -3.6240834909        1.0436372865       -0.0233619721
 C         -3.5112738643       -0.0949032087       -0.8033058590
 C         -2.3378860728       -0.8264441976       -0.8011059529
 C          1.2539481760       -0.4341063583        0.0200577244
 C          1.3801515819        0.7194259451       -0.7518087980
 C          2.5592599631        1.4401285907       -0.7516903675
 C          3.6287545954        1.0259656017        0.0251031957
 C          3.5120269197       -0.1155162102        0.8001165277
 C          2.3350857300       -0.8414647110        0.7969223612
 H          0.9075716777       -3.1051661993       -0.0082354862
 H         -0.9230847795       -3.1007307093        0.0027575826
 H         -0.5465445043        1.0396013397        1.3694826561
 H         -2.6364489608        2.3363080218        1.3684888253
 H         -4.5410652662        1.6143620975       -0.0255572659
 H         -4.3410324715       -0.4128497093       -1.4181989129
 H         -2.2488786133       -1.7048604120       -1.4236447486
 H          0.5483825708        1.0430806415       -1.3614608178
 H          2.6448187148        2.3293856941       -1.3592795025
 H          4.5486329945        1.5920121079        0.0273354575
 H          4.3417795123       -0.4406849981        1.4112958465
 H          2.2431280097       -1.7219070158        1.4160901754
          26
        -36.04545917
 C         -0.0000859147        2.5242230485       -0.0003272300
 C          0.0000547532        1.1912134289       -0.0000888019
 C         -1.2548098334        0.4197171973       -0.0452580640
 C         -2.3736996348        0.8231206988        0.6787814459
 C         -3.5494323513        0.0980833872        0.6185121682
 C         -3.6274306957       -1.0384514001       -0.1687779130
 C         -2.5202146044       -1.4488635789       -0.8927569850
 C         -1.3418205880       -0.7293862077       -0.8286467675
 C          1.2548868453        0.4197259774        0.0452831072
 C          1.3414438611       -0.7299611501        0.8278546808
 C          2.5197118365       -1.4496737885        0.8919382212
 C          3.6273061716       -1.0388673137        0.1687768411
 C          3.5498650669        0.0984223799       -0.6175120023
 C          2.3742582714        0.8236406859       -0.6777734363
 H          0.9135900327        3.0911105979        0.0533674858
 H         -0.9139806420        3.0907886672       -0.0540721718
 H         -2.3121525838        1.7000172440        1.3067056972
 H         -4.4081012266        0.4189074142        1.1906593206
 H         -4.5464869740       -1.6039781978       -0.2155498506
 H         -2.5754071146       -2.3346120162       -1.5090128741
 H         -0.4806485707       -1.0499934194       -1.3976753860
 H          0.4799663007       -1.0510379825        1.3961447165
 H          2.5744240496       -2.3359543449        1.5074613152
 H          4.5463581011       -1.6043872389        0.2157138921
 H          4.4089148169        0.4196571857       -1.1888552921
 H          2.3131283661        1.7010807075       -1.3049495890
