 xtb: 6.7.1 (edcfbbe)
          04112512073D

 27 27  0     0  0            999 V2000
   -3.0227   -0.6673    2.0520 C   0  0  0  0  0  0  0  0  0  0  0  0
   -3.0001   -1.4584    0.7488 C   0  0  0  0  0  0  0  0  0  0  0  0
   -2.7203   -0.5701   -0.4664 C   0  0  0  0  0  0  0  0  0  0  0  0
   -3.4837    0.2138   -0.5121 H   0  0  0  0  0  0  0  0  0  0  0  0
   -2.7313   -1.3546   -1.7745 C   0  0  0  0  0  0  0  0  0  0  0  0
   -1.4497    0.1622   -0.3086 N   0  0  0  0  0  0  0  0  0  0  0  0
   -0.2584   -0.5494   -0.2032 C   0  0  0  0  0  0  0  0  0  0  0  0
   -0.2232   -1.7655   -0.2545 O   0  0  0  0  0  0  0  0  0  0  0  0
    0.9258    0.2698   -0.0279 C   0  0  0  0  0  0  0  0  0  0  0  0
    0.8828    1.6234    0.0268 C   0  0  0  0  0  0  0  0  0  0  0  0
   -0.3464    2.2050   -0.0918 N   0  0  0  0  0  0  0  0  0  0  0  0
   -1.5300    1.5347   -0.2558 C   0  0  0  0  0  0  0  0  0  0  0  0
   -2.5766    2.1526   -0.3485 O   0  0  0  0  0  0  0  0  0  0  0  0
    2.0353    2.5404    0.2033 C   0  0  0  0  0  0  0  0  0  0  0  0
    2.5465   -0.7143    0.1199 Br  0  0  0  0  0  0  0  0  0  0  0  0
   -3.7097    0.1733    1.9762 H   0  0  0  0  0  0  0  0  0  0  0  0
   -3.3408   -1.3051    2.8717 H   0  0  0  0  0  0  0  0  0  0  0  0
   -2.0330   -0.2801    2.2899 H   0  0  0  0  0  0  0  0  0  0  0  0
   -2.2503   -2.2483    0.8038 H   0  0  0  0  0  0  0  0  0  0  0  0
   -3.9723   -1.9252    0.5895 H   0  0  0  0  0  0  0  0  0  0  0  0
   -3.7127   -1.7963   -1.9158 H   0  0  0  0  0  0  0  0  0  0  0  0
   -2.5215   -0.6940   -2.6127 H   0  0  0  0  0  0  0  0  0  0  0  0
   -1.9888   -2.1476   -1.7517 H   0  0  0  0  0  0  0  0  0  0  0  0
   -0.4208    3.2170   -0.0554 H   0  0  0  0  0  0  0  0  0  0  0  0
    2.0945    3.2249   -0.6403 H   0  0  0  0  0  0  0  0  0  0  0  0
    2.9658    1.9865    0.2759 H   0  0  0  0  0  0  0  0  0  0  0  0
    1.9023    3.1296    1.1084 H   0  0  0  0  0  0  0  0  0  0  0  0
  1  2  1  0  0  0  0
  2  3  1  0  0  0  0
  3  4  1  0  0  0  0
  3  5  1  0  0  0  0
  3  6  1  0  0  0  0
  6  7  1  0  0  0  0
  7  8  2  0  0  0  0
  7  9  1  0  0  0  0
  9 10  2  0  0  0  0
 10 11  1  0  0  0  0
  6 12  1  0  0  0  0
 11 12  1  0  0  0  0
 12 13  2  0  0  0  0
 10 14  1  0  0  0  0
  9 15  1  0  0  0  0
  1 16  1  0  0  0  0
  1 17  1  0  0  0  0
  1 18  1  0  0  0  0
  2 19  1  0  0  0  0
  2 20  1  0  0  0  0
  5 21  1  0  0  0  0
  5 22  1  0  0  0  0
  5 23  1  0  0  0  0
 11 24  1  0  0  0  0
 14 25  1  0  0  0  0
 14 26  1  0  0  0  0
 14 27  1  0  0  0  0
M  END
