  14
 
 C          0.2260000000       -0.9150000000       -1.0350000000
 C         -0.1050000000        0.5470000000       -1.2850000000
 O          0.3670000000        1.3410000000       -0.1940000000
 C         -0.2260000000        0.9150000000        1.0350000000
 C          0.1050000000       -0.5470000000        1.2850000000
 O         -0.3670000000       -1.3410000000        0.1930000000
 H          1.3100000000       -1.0720000000       -0.9760000000
 H         -0.1680000000       -1.5410000000       -1.8410000000
 H          0.3800000000        0.9000000000       -2.2000000000
 H         -1.1860000000        0.6970000000       -1.3870000000
 H          0.1680000000        1.5410000000        1.8410000000
 H         -1.3100000000        1.0720000000        0.9760000000
 H          1.1860000000       -0.6970000000        1.3870000000
 H         -0.3800000000       -0.9000000000        2.2000000000
