 xtb: 6.7.1 (edcfbbe)
          04112511553D

 13 12  0     0  0            999 V2000
   -2.0476    0.1021   -0.6497 C   0  0  0  0  0  0  0  0  0  0  0  0
   -1.3225   -0.2834    0.5031 O   0  0  0  0  0  0  0  0  0  0  0  0
   -0.0403    0.2954    0.6163 C   0  0  0  0  0  0  0  0  0  0  0  0
    0.9867   -0.2850   -0.3714 C   0  0  0  0  0  0  0  0  0  0  0  0
    2.3037    0.0911   -0.0448 O   0  0  0  0  0  0  0  0  0  0  0  0
   -2.0899    1.1928   -0.7345 H   0  0  0  0  0  0  0  0  0  0  0  0
   -3.0510   -0.2939   -0.5140 H   0  0  0  0  0  0  0  0  0  0  0  0
   -1.6110   -0.3174   -1.5599 H   0  0  0  0  0  0  0  0  0  0  0  0
   -0.1084    1.3866    0.4921 H   0  0  0  0  0  0  0  0  0  0  0  0
    0.2872    0.0712    1.6345 H   0  0  0  0  0  0  0  0  0  0  0  0
    0.7474    0.0166   -1.3991 H   0  0  0  0  0  0  0  0  0  0  0  0
    0.9600   -1.3757   -0.3113 H   0  0  0  0  0  0  0  0  0  0  0  0
    2.3944    1.0516   -0.1218 H   0  0  0  0  0  0  0  0  0  0  0  0
  1  2  1  0  0  0  0
  2  3  1  0  0  0  0
  3  4  1  0  0  0  0
  4  5  1  0  0  0  0
  1  6  1  0  0  0  0
  1  7  1  0  0  0  0
  1  8  1  0  0  0  0
  3  9  1  0  0  0  0
  3 10  1  0  0  0  0
  4 11  1  0  0  0  0
  4 12  1  0  0  0  0
  5 13  1  0  0  0  0
M  END
