 xtb: 6.7.1 (edcfbbe)
          04112511203D

 21 20  0     0  0            999 V2000
   -2.1785    1.0413    0.4259 C   0  0  0  0  0  0  0  0  0  0  0  0
   -1.8391   -0.3724   -0.0297 C   0  0  0  0  0  0  0  0  0  0  0  0
   -0.5465   -0.4896   -0.8436 C   0  0  0  0  0  0  0  0  0  0  0  0
    0.7692   -0.1385   -0.0982 C   0  0  0  0  0  0  0  0  0  0  0  0
    1.1380    1.3377   -0.2745 C   0  0  0  0  0  0  0  0  0  0  0  0
    1.9070   -0.9994   -0.6662 C   0  0  0  0  0  0  0  0  0  0  0  0
    0.6559   -0.3591    1.3036 O   0  0  0  0  0  0  0  0  0  0  0  0
   -2.1624    1.7320   -0.4143 H   0  0  0  0  0  0  0  0  0  0  0  0
   -1.4693    1.3770    1.1777 H   0  0  0  0  0  0  0  0  0  0  0  0
   -3.1727    1.0603    0.8673 H   0  0  0  0  0  0  0  0  0  0  0  0
   -1.7774   -1.0164    0.8492 H   0  0  0  0  0  0  0  0  0  0  0  0
   -2.6524   -0.7477   -0.6561 H   0  0  0  0  0  0  0  0  0  0  0  0
   -0.4788   -1.5227   -1.1941 H   0  0  0  0  0  0  0  0  0  0  0  0
   -0.6189    0.1505   -1.7237 H   0  0  0  0  0  0  0  0  0  0  0  0
    2.0411    1.5511    0.2921 H   0  0  0  0  0  0  0  0  0  0  0  0
    0.3462    1.9800    0.0936 H   0  0  0  0  0  0  0  0  0  0  0  0
    1.3160    1.5551   -1.3232 H   0  0  0  0  0  0  0  0  0  0  0  0
    2.8430   -0.7497   -0.1717 H   0  0  0  0  0  0  0  0  0  0  0  0
    2.0143   -0.8206   -1.7322 H   0  0  0  0  0  0  0  0  0  0  0  0
    1.7034   -2.0574   -0.5110 H   0  0  0  0  0  0  0  0  0  0  0  0
    0.5920   -1.3094    1.4651 H   0  0  0  0  0  0  0  0  0  0  0  0
  1  2  1  0  0  0  0
  2  3  1  0  0  0  0
  3  4  1  0  0  0  0
  4  5  1  0  0  0  0
  4  6  1  0  0  0  0
  4  7  1  0  0  0  0
  1  8  1  0  0  0  0
  1  9  1  0  0  0  0
  1 10  1  0  0  0  0
  2 11  1  0  0  0  0
  2 12  1  0  0  0  0
  3 13  1  0  0  0  0
  3 14  1  0  0  0  0
  5 15  1  0  0  0  0
  5 16  1  0  0  0  0
  5 17  1  0  0  0  0
  6 18  1  0  0  0  0
  6 19  1  0  0  0  0
  6 20  1  0  0  0  0
  7 21  1  0  0  0  0
M  END
