18
 xtb: 6.7.1 (edcfbbe)
C           -1.61513663969682        1.11680326025664       -0.51359471847214
C           -1.10553537262877        0.46962659219465        0.77637220177788
C           -0.04347370770941       -0.63907257012199        0.62301906408630
H           -0.01944314435710       -1.17728600867041        1.58250491210494
C           -0.39376717586054       -1.65076115767462       -0.46812324025679
C            1.38455909750107       -0.11439562539235        0.46964229222669
O            1.64956532465109        0.58187932572228       -0.76719290258009
H           -2.34432102511904        1.89855342732478       -0.27576493888066
H           -0.81899290486340        1.58119435581561       -1.10280431647292
H           -2.11796360851491        0.38700846790134       -1.15598392039268
H           -1.96916827455486        0.03738229522054        1.29731888364296
H           -0.70460592747619        1.24560627502876        1.44197864349730
H           -0.33785295042179       -1.20292489233904       -1.46514425001917
H           -1.40961825831702       -2.03764618347319       -0.33311507683500
H            0.29760789634748       -2.50001136552514       -0.44416074698459
H            2.08104354320933       -0.96056893969551        0.48136707814138
H            1.63225182629077        0.53819638035706        1.31848946279198
H            1.26432155171461        1.46303587213789       -0.69296717084838
