 xtb: 6.7.1 (edcfbbe)
          04072505553D

 15 14  0     0  0            999 V2000
    1.8257   -0.9879   -0.0010 C   0  0  0  0  0  0  0  0  0  0  0  0
    1.7919    0.5050   -0.3068 C   0  0  0  0  0  0  0  0  0  0  0  0
    0.5664    1.2246    0.2589 C   0  0  0  0  0  0  0  0  0  0  0  0
   -0.7492    0.8622   -0.4192 C   0  0  0  0  0  0  0  0  0  0  0  0
   -1.5190   -0.6907    0.1795 S   0  0  0  0  0  0  0  0  0  0  0  0
    2.7545   -1.4231   -0.3622 H   0  0  0  0  0  0  0  0  0  0  0  0
    0.9999   -1.5065   -0.4807 H   0  0  0  0  0  0  0  0  0  0  0  0
    1.7596   -1.1597    1.0711 H   0  0  0  0  0  0  0  0  0  0  0  0
    1.8267    0.6546   -1.3886 H   0  0  0  0  0  0  0  0  0  0  0  0
    2.6834    0.9711    0.1190 H   0  0  0  0  0  0  0  0  0  0  0  0
    0.7110    2.2998    0.1261 H   0  0  0  0  0  0  0  0  0  0  0  0
    0.4934    1.0301    1.3310 H   0  0  0  0  0  0  0  0  0  0  0  0
   -1.4921    1.6453   -0.2726 H   0  0  0  0  0  0  0  0  0  0  0  0
   -0.6102    0.7043   -1.4884 H   0  0  0  0  0  0  0  0  0  0  0  0
   -1.7145   -0.2852    1.4281 H   0  0  0  0  0  0  0  0  0  0  0  0
  1  2  1  0  0  0  0
  2  3  1  0  0  0  0
  3  4  1  0  0  0  0
  4  5  1  0  0  0  0
  1  6  1  0  0  0  0
  1  7  1  0  0  0  0
  1  8  1  0  0  0  0
  2  9  1  0  0  0  0
  2 10  1  0  0  0  0
  3 11  1  0  0  0  0
  3 12  1  0  0  0  0
  4 13  1  0  0  0  0
  4 14  1  0  0  0  0
  5 15  1  0  0  0  0
M  END
