 xtb: 6.7.1 (edcfbbe)
          04112512013D

 22 22  0     0  0            999 V2000
    3.4178   -2.0396   -0.2092 C   0  0  0  0  0  0  0  0  0  0  0  0
    3.0716   -0.8978    0.7496 C   0  0  0  0  0  0  0  0  0  0  0  0
    3.2644    0.4378    0.0751 C   0  0  0  0  0  0  0  0  0  0  0  0
    4.3800    0.8790   -0.1762 O   0  0  0  0  0  0  0  0  0  0  0  0
    2.1795    1.1991   -0.2241 N   0  0  0  0  0  0  0  0  0  0  0  0
    0.8101    0.9678   -0.0797 C   0  0  0  0  0  0  0  0  0  0  0  0
   -0.0074    2.0311    0.3081 C   0  0  0  0  0  0  0  0  0  0  0  0
   -1.3692    1.8578    0.4490 C   0  0  0  0  0  0  0  0  0  0  0  0
   -1.9432    0.6198    0.1999 C   0  0  0  0  0  0  0  0  0  0  0  0
   -1.1399   -0.4353   -0.2142 C   0  0  0  0  0  0  0  0  0  0  0  0
    0.2261   -0.2646   -0.3632 C   0  0  0  0  0  0  0  0  0  0  0  0
   -1.8423   -1.9799   -0.5686 Cl  0  0  0  0  0  0  0  0  0  0  0  0
   -3.6528    0.3996    0.3867 Cl  0  0  0  0  0  0  0  0  0  0  0  0
    4.4351   -1.9163   -0.5732 H   0  0  0  0  0  0  0  0  0  0  0  0
    2.7515   -2.0526   -1.0685 H   0  0  0  0  0  0  0  0  0  0  0  0
    3.3419   -2.9931    0.3054 H   0  0  0  0  0  0  0  0  0  0  0  0
    3.7769   -0.9251    1.5828 H   0  0  0  0  0  0  0  0  0  0  0  0
    2.0609   -0.9998    1.1386 H   0  0  0  0  0  0  0  0  0  0  0  0
    2.4262    2.1382   -0.5211 H   0  0  0  0  0  0  0  0  0  0  0  0
    0.4283    2.9966    0.5072 H   0  0  0  0  0  0  0  0  0  0  0  0
   -1.9968    2.6775    0.7562 H   0  0  0  0  0  0  0  0  0  0  0  0
    0.8142   -1.0888   -0.7269 H   0  0  0  0  0  0  0  0  0  0  0  0
  1  2  1  0  0  0  0
  2  3  1  0  0  0  0
  3  4  2  0  0  0  0
  3  5  4  0  0  0  0
  5  6  1  0  0  0  0
  6  7  4  0  0  0  0
  7  8  4  0  0  0  0
  8  9  4  0  0  0  0
  9 10  4  0  0  0  0
  6 11  4  0  0  0  0
 10 11  4  0  0  0  0
 10 12  1  0  0  0  0
  9 13  1  0  0  0  0
  1 14  1  0  0  0  0
  1 15  1  0  0  0  0
  1 16  1  0  0  0  0
  2 17  1  0  0  0  0
  2 18  1  0  0  0  0
  5 19  1  0  0  0  0
  7 20  1  0  0  0  0
  8 21  1  0  0  0  0
 11 22  1  0  0  0  0
M  END
