17
 xtb: 6.7.1 (edcfbbe)
C           -2.13995723385090        0.67606285656902       -0.88935316287073
C           -1.83250336414247        0.52571302159163        0.59707885506459
C           -0.90041790909263       -0.66095307739212        0.88252199394770
C            0.41328005892682       -0.55903625724208        0.16012523715374
O            0.86351815488129       -1.39509428112507       -0.60736582617431
O            1.06348193390127        0.58267262470692        0.45900360843744
C            2.34302666040487        0.77562470457150       -0.19452550593725
H           -2.59933263469205       -0.23458859279752       -1.28909536353300
H           -2.82854078521945        1.50792839703968       -1.06558892592320
H           -1.22846432558263        0.87231814640299       -1.46666137553275
H           -2.75975486416503        0.36329852494147        1.15653241791910
H           -1.38339961446249        1.44569535574536        0.98505947331008
H           -1.36756002771803       -1.59981205039966        0.57504540084071
H           -0.68663020268351       -0.71929369525575        1.95648875075210
H            2.70083079624930        1.74514392638124        0.15046879095179
H            2.21628712757046        0.78079239328553       -1.27989457662407
H            3.03940814450875       -0.01383827085356        0.09894577112918
