 21

C      1.351000    -2.128000    -2.149000
O      1.939000    -1.022000    -1.474000
C      1.885000    -1.036000    -0.112000
C      2.921000    -1.631000     0.608000
C      2.878000    -1.652000     2.002000
C      1.800000    -1.079000     2.676000
C      0.764000    -0.484000     1.955000
C      0.807000    -0.463000     0.561000
O     -0.206000     0.118000    -0.143000
O     -0.284000     0.072000     2.625000
C     -0.249000     0.008000     4.050000
H      1.461000    -1.997000    -3.228000
H      0.293000    -2.197000    -1.885000
H      1.861000    -3.044000    -1.843000
H      3.764000    -2.079000     0.090000
H      3.685000    -2.115000     2.563000
H      1.773000    -1.099000     3.762000
H     -0.876000     0.469000     0.463000
H     -1.143000     0.488000     4.448000
H      0.648000     0.512000     4.406000
H     -0.228000    -1.040000     4.347000
