21
 xtb: 6.7.1 (edcfbbe)
C           -2.24576566640684        0.62273524452041       -0.99900512061245
C           -1.86074531483449       -0.36778603751973        0.09879469654568
C           -0.58622448708777       -0.05241416824862        0.89308012132258
C            0.76547937612695       -0.04692353167056        0.15293879685492
C            1.01847915213353        1.23992532479015       -0.62852150168057
C            0.93680609753566       -1.27212087646314       -0.73136371389378
O            1.81544723328961       -0.15944985485537        1.16462480165721
H           -2.22379769054527        1.65427715900758       -0.62884358477340
H           -3.26042603061460        0.41780987951425       -1.35669550198429
H           -1.58011697486414        0.56003509604940       -1.86435793036305
H           -2.67894838654506       -0.41056881356017        0.82795037517853
H           -1.78675474590390       -1.37547634597289       -0.32762173226104
H           -0.70239888327899        0.91781311257827        1.39667757771111
H           -0.49840449290080       -0.80996288164775        1.68163353049561
H            2.02863760761061        1.22460304476231       -1.05084662742201
H            0.93074494444268        2.10968010001638        0.03222130021528
H            0.30961056345024        1.36443493849794       -1.44948544909327
H            1.95302936841806       -1.30299622865043       -1.13735226807246
H            0.23612474470371       -1.24307999851195       -1.56980844656689
H            0.75966190827220       -2.19078333451659       -0.16223165740619
H            1.73447691924124        0.61478726562393        1.73839208993352
