 xtb: 6.7.1 (edcfbbe)
          04112512013D

 22 22  0     0  0            999 V2000
    2.9159    0.2567    1.7428 C   0  0  0  0  0  0  0  0  0  0  0  0
    3.0996   -0.8727    0.7264 C   0  0  0  0  0  0  0  0  0  0  0  0
    3.2510   -0.3054   -0.6651 C   0  0  0  0  0  0  0  0  0  0  0  0
    4.3215   -0.3223   -1.2621 O   0  0  0  0  0  0  0  0  0  0  0  0
    2.1877    0.3166   -1.2314 N   0  0  0  0  0  0  0  0  0  0  0  0
    0.8656    0.4415   -0.7816 C   0  0  0  0  0  0  0  0  0  0  0  0
    0.2666    1.7009   -0.7740 C   0  0  0  0  0  0  0  0  0  0  0  0
   -1.0400    1.8532   -0.3539 C   0  0  0  0  0  0  0  0  0  0  0  0
   -1.7714    0.7496    0.0592 C   0  0  0  0  0  0  0  0  0  0  0  0
   -1.1894   -0.5123    0.0241 C   0  0  0  0  0  0  0  0  0  0  0  0
    0.1176   -0.6701   -0.4035 C   0  0  0  0  0  0  0  0  0  0  0  0
   -2.1026   -1.9082    0.4962 Cl  0  0  0  0  0  0  0  0  0  0  0  0
   -3.4077    0.9431    0.5970 Cl  0  0  0  0  0  0  0  0  0  0  0  0
    2.8974   -0.1570    2.7469 H   0  0  0  0  0  0  0  0  0  0  0  0
    1.9835    0.7875    1.5690 H   0  0  0  0  0  0  0  0  0  0  0  0
    3.7402    0.9627    1.6754 H   0  0  0  0  0  0  0  0  0  0  0  0
    2.2586   -1.5586    0.7836 H   0  0  0  0  0  0  0  0  0  0  0  0
    4.0158   -1.4220    0.9467 H   0  0  0  0  0  0  0  0  0  0  0  0
    2.4213    0.8473   -2.0638 H   0  0  0  0  0  0  0  0  0  0  0  0
    0.8302    2.5636   -1.0897 H   0  0  0  0  0  0  0  0  0  0  0  0
   -1.5011    2.8266   -0.3387 H   0  0  0  0  0  0  0  0  0  0  0  0
    0.5330   -1.6618   -0.4638 H   0  0  0  0  0  0  0  0  0  0  0  0
  1  2  1  0  0  0  0
  2  3  1  0  0  0  0
  3  4  2  0  0  0  0
  3  5  4  0  0  0  0
  5  6  1  0  0  0  0
  6  7  4  0  0  0  0
  7  8  4  0  0  0  0
  8  9  4  0  0  0  0
  9 10  4  0  0  0  0
  6 11  4  0  0  0  0
 10 11  4  0  0  0  0
 10 12  1  0  0  0  0
  9 13  1  0  0  0  0
  1 14  1  0  0  0  0
  1 15  1  0  0  0  0
  1 16  1  0  0  0  0
  2 17  1  0  0  0  0
  2 18  1  0  0  0  0
  5 19  1  0  0  0  0
  7 20  1  0  0  0  0
  8 21  1  0  0  0  0
 11 22  1  0  0  0  0
M  END
