 xtb: 6.7.1 (edcfbbe)
          04112512403D

 18 17  0     0  0            999 V2000
   -2.2241    0.8970    0.1876 C   0  0  0  0  0  0  0  0  0  0  0  0
   -0.8482    0.6831   -0.4314 C   0  0  0  0  0  0  0  0  0  0  0  0
   -0.0228   -0.3982    0.2745 C   0  0  0  0  0  0  0  0  0  0  0  0
   -0.0005   -0.1712    1.3457 H   0  0  0  0  0  0  0  0  0  0  0  0
   -0.5988   -1.7953    0.0634 C   0  0  0  0  0  0  0  0  0  0  0  0
    1.4243   -0.3529   -0.2276 C   0  0  0  0  0  0  0  0  0  0  0  0
    2.0103    0.8804    0.1408 O   0  0  0  0  0  0  0  0  0  0  0  0
   -2.7264    1.7292   -0.2995 H   0  0  0  0  0  0  0  0  0  0  0  0
   -2.8468    0.0135    0.0757 H   0  0  0  0  0  0  0  0  0  0  0  0
   -2.1325    1.1246    1.2472 H   0  0  0  0  0  0  0  0  0  0  0  0
   -0.2853    1.6175   -0.3788 H   0  0  0  0  0  0  0  0  0  0  0  0
   -0.9586    0.4162   -1.4852 H   0  0  0  0  0  0  0  0  0  0  0  0
   -1.6009   -1.8605    0.4754 H   0  0  0  0  0  0  0  0  0  0  0  0
    0.0207   -2.5413    0.5555 H   0  0  0  0  0  0  0  0  0  0  0  0
   -0.6427   -2.0286   -0.9982 H   0  0  0  0  0  0  0  0  0  0  0  0
    1.4341   -0.4686   -1.3203 H   0  0  0  0  0  0  0  0  0  0  0  0
    1.9892   -1.1843    0.2161 H   0  0  0  0  0  0  0  0  0  0  0  0
    2.9180    0.9132   -0.1877 H   0  0  0  0  0  0  0  0  0  0  0  0
  1  2  1  0  0  0  0
  2  3  1  0  0  0  0
  3  4  1  0  0  0  0
  3  5  1  0  0  0  0
  3  6  1  0  0  0  0
  6  7  1  0  0  0  0
  1  8  1  0  0  0  0
  1  9  1  0  0  0  0
  1 10  1  0  0  0  0
  2 11  1  0  0  0  0
  2 12  1  0  0  0  0
  5 13  1  0  0  0  0
  5 14  1  0  0  0  0
  5 15  1  0  0  0  0
  6 16  1  0  0  0  0
  6 17  1  0  0  0  0
  7 18  1  0  0  0  0
M  END
