14
 xtb: 6.7.1 (edcfbbe)
C            1.81178379530264       -0.30972317745473        0.50010831563997
O            1.02483169123705       -0.17388393164313       -0.68545245201908
C            0.02440787237267        0.85113649271395       -0.57943299697640
C           -1.07187778587089        0.52683101753148        0.41613413093970
N           -1.73604564645258       -0.74036541044240        0.06392295673713
H            2.62690176776056       -0.99806024461584        0.26361449701030
H            1.23287715000152       -0.72408772953928        1.33569137918261
H            2.23427508002993        0.65845015701834        0.80461232189015
H            0.49961933306194        1.80609339452734       -0.30635450276780
H           -0.39821613795136        0.94417861793777       -1.58555620225580
H           -0.66182899418525        0.53351248855985        1.43798957845340
H           -1.80200078504210        1.34319626585940        0.36770496824847
H           -2.39829519830105       -0.96881369086923        0.79914660762719
H           -1.03458302735942       -1.47537787325742        0.10132547824668
