 xtb: 6.7.1 (edcfbbe)
          04112511443D

 25 25  0     0  0            999 V2000
    3.3890   -0.7374    0.1022 C   0  0  0  0  0  0  0  0  0  0  0  0
    2.0314   -0.2183    0.4714 C   0  0  0  0  0  0  0  0  0  0  0  0
    1.4768   -0.4921    1.6418 C   0  0  0  0  0  0  0  0  0  0  0  0
    1.3699    0.6232   -0.5969 C   0  0  0  0  0  0  0  0  0  0  0  0
    2.1649    1.1580   -1.1272 H   0  0  0  0  0  0  0  0  0  0  0  0
    0.6364   -0.2635   -1.6160 C   0  0  0  0  0  0  0  0  0  0  0  0
   -0.5050   -1.0292   -0.9547 C   0  0  0  0  0  0  0  0  0  0  0  0
   -1.3935   -0.0966   -0.1843 C   0  0  0  0  0  0  0  0  0  0  0  0
   -0.9638    1.1080    0.2299 C   0  0  0  0  0  0  0  0  0  0  0  0
    0.3860    1.6580   -0.0405 C   0  0  0  0  0  0  0  0  0  0  0  0
   -2.7385   -0.5333    0.1378 C   0  0  0  0  0  0  0  0  0  0  0  0
   -3.5651    0.0999    0.7731 O   0  0  0  0  0  0  0  0  0  0  0  0
    3.7682   -1.4143    0.8626 H   0  0  0  0  0  0  0  0  0  0  0  0
    3.3516   -1.2643   -0.8494 H   0  0  0  0  0  0  0  0  0  0  0  0
    4.0880    0.0911   -0.0056 H   0  0  0  0  0  0  0  0  0  0  0  0
    0.5056   -0.1272    1.9285 H   0  0  0  0  0  0  0  0  0  0  0  0
    1.9800   -1.1059    2.3706 H   0  0  0  0  0  0  0  0  0  0  0  0
    0.2315    0.3750   -2.4030 H   0  0  0  0  0  0  0  0  0  0  0  0
    1.3319   -0.9665   -2.0747 H   0  0  0  0  0  0  0  0  0  0  0  0
   -1.0902   -1.5595   -1.7083 H   0  0  0  0  0  0  0  0  0  0  0  0
   -0.0972   -1.7750   -0.2660 H   0  0  0  0  0  0  0  0  0  0  0  0
   -1.6529    1.7361    0.7806 H   0  0  0  0  0  0  0  0  0  0  0  0
    0.2664    2.4713   -0.7636 H   0  0  0  0  0  0  0  0  0  0  0  0
    0.7850    2.1099    0.8704 H   0  0  0  0  0  0  0  0  0  0  0  0
   -2.9998   -1.5388   -0.2429 H   0  0  0  0  0  0  0  0  0  0  0  0
  1  2  1  0  0  0  0
  2  3  2  0  0  0  0
  2  4  1  0  0  0  0
  4  5  1  0  0  0  0
  4  6  1  0  0  0  0
  6  7  1  0  0  0  0
  7  8  1  0  0  0  0
  8  9  2  0  0  0  0
  4 10  1  0  0  0  0
  9 10  1  0  0  0  0
  8 11  1  0  0  0  0
 11 12  2  0  0  0  0
  1 13  1  0  0  0  0
  1 14  1  0  0  0  0
  1 15  1  0  0  0  0
  3 16  1  0  0  0  0
  3 17  1  0  0  0  0
  6 18  1  0  0  0  0
  6 19  1  0  0  0  0
  7 20  1  0  0  0  0
  7 21  1  0  0  0  0
  9 22  1  0  0  0  0
 10 23  1  0  0  0  0
 10 24  1  0  0  0  0
 11 25  1  0  0  0  0
M  END
