 xtb: 6.7.1 (edcfbbe)
          04112511233D

 26 25  0     0  0            999 V2000
   -1.6527   -0.6237    1.3049 C   0  0  0  0  0  0  0  0  0  0  0  0
   -1.2180   -0.4744   -0.1517 C   0  0  0  0  0  0  0  0  0  0  0  0
   -2.3926    0.0297   -0.9936 C   0  0  0  0  0  0  0  0  0  0  0  0
    0.0319    0.4169   -0.3285 C   0  0  0  0  0  0  0  0  0  0  0  0
   -0.1818    1.8136    0.2614 C   0  0  0  0  0  0  0  0  0  0  0  0
    1.3160   -0.2209    0.2468 C   0  0  0  0  0  0  0  0  0  0  0  0
    1.5725   -1.6235   -0.3089 C   0  0  0  0  0  0  0  0  0  0  0  0
    2.5384    0.6506   -0.0530 C   0  0  0  0  0  0  0  0  0  0  0  0
   -2.4911   -1.3140    1.3706 H   0  0  0  0  0  0  0  0  0  0  0  0
   -0.8446   -1.0150    1.9171 H   0  0  0  0  0  0  0  0  0  0  0  0
   -1.9690    0.3315    1.7149 H   0  0  0  0  0  0  0  0  0  0  0  0
   -0.9679   -1.4676   -0.5350 H   0  0  0  0  0  0  0  0  0  0  0  0
   -2.7896    0.9647   -0.6068 H   0  0  0  0  0  0  0  0  0  0  0  0
   -3.1968   -0.7027   -0.9814 H   0  0  0  0  0  0  0  0  0  0  0  0
   -2.0876    0.1847   -2.0261 H   0  0  0  0  0  0  0  0  0  0  0  0
    0.1841    0.5265   -1.4099 H   0  0  0  0  0  0  0  0  0  0  0  0
   -1.1636    2.1968    0.0005 H   0  0  0  0  0  0  0  0  0  0  0  0
    0.5537    2.5118   -0.1276 H   0  0  0  0  0  0  0  0  0  0  0  0
   -0.0951    1.7913    1.3450 H   0  0  0  0  0  0  0  0  0  0  0  0
    1.2137   -0.2935    1.3348 H   0  0  0  0  0  0  0  0  0  0  0  0
    2.5585   -1.9672   -0.0040 H   0  0  0  0  0  0  0  0  0  0  0  0
    0.8460   -2.3425    0.0587 H   0  0  0  0  0  0  0  0  0  0  0  0
    1.5365   -1.6137   -1.3963 H   0  0  0  0  0  0  0  0  0  0  0  0
    2.4787    1.6099    0.4515 H   0  0  0  0  0  0  0  0  0  0  0  0
    2.6265    0.8236   -1.1236 H   0  0  0  0  0  0  0  0  0  0  0  0
    3.4435    0.1521    0.2872 H   0  0  0  0  0  0  0  0  0  0  0  0
  1  2  1  0  0  0  0
  2  3  1  0  0  0  0
  2  4  1  0  0  0  0
  4  5  1  0  0  0  0
  4  6  1  0  0  0  0
  6  7  1  0  0  0  0
  6  8  1  0  0  0  0
  1  9  1  0  0  0  0
  1 10  1  0  0  0  0
  1 11  1  0  0  0  0
  2 12  1  0  0  0  0
  3 13  1  0  0  0  0
  3 14  1  0  0  0  0
  3 15  1  0  0  0  0
  4 16  1  0  0  0  0
  5 17  1  0  0  0  0
  5 18  1  0  0  0  0
  5 19  1  0  0  0  0
  6 20  1  0  0  0  0
  7 21  1  0  0  0  0
  7 22  1  0  0  0  0
  7 23  1  0  0  0  0
  8 24  1  0  0  0  0
  8 25  1  0  0  0  0
  8 26  1  0  0  0  0
M  END
