 xtb: 6.7.1 (edcfbbe)
          04112512193D

 17 16  0     0  0            999 V2000
   -2.2765    0.2940    1.0996 C   0  0  0  0  0  0  0  0  0  0  0  0
   -1.8277    0.4247   -0.3592 C   0  0  0  0  0  0  0  0  0  0  0  0
   -0.4544   -0.1773   -0.5055 C   0  0  0  0  0  0  0  0  0  0  0  0
   -0.2339   -1.3418   -0.7675 O   0  0  0  0  0  0  0  0  0  0  0  0
    0.4956    0.7225   -0.2884 O   0  0  0  0  0  0  0  0  0  0  0  0
    1.8678    0.2956   -0.3180 C   0  0  0  0  0  0  0  0  0  0  0  0
    2.3226   -0.1748    1.0551 C   0  0  0  0  0  0  0  0  0  0  0  0
   -1.6001    0.8392    1.7527 H   0  0  0  0  0  0  0  0  0  0  0  0
   -3.2773    0.6994    1.2127 H   0  0  0  0  0  0  0  0  0  0  0  0
   -2.2855   -0.7517    1.3979 H   0  0  0  0  0  0  0  0  0  0  0  0
   -1.7857    1.4748   -0.6435 H   0  0  0  0  0  0  0  0  0  0  0  0
   -2.5140   -0.1171   -1.0090 H   0  0  0  0  0  0  0  0  0  0  0  0
    1.9664   -0.5083   -1.0538 H   0  0  0  0  0  0  0  0  0  0  0  0
    2.4247    1.1758   -0.6408 H   0  0  0  0  0  0  0  0  0  0  0  0
    3.3746   -0.4378    1.0147 H   0  0  0  0  0  0  0  0  0  0  0  0
    2.1777    0.6140    1.7884 H   0  0  0  0  0  0  0  0  0  0  0  0
    1.7513   -1.0498    1.3573 H   0  0  0  0  0  0  0  0  0  0  0  0
  1  2  1  0  0  0  0
  2  3  1  0  0  0  0
  3  4  2  0  0  0  0
  3  5  1  0  0  0  0
  5  6  1  0  0  0  0
  6  7  1  0  0  0  0
  1  8  1  0  0  0  0
  1  9  1  0  0  0  0
  1 10  1  0  0  0  0
  2 11  1  0  0  0  0
  2 12  1  0  0  0  0
  6 13  1  0  0  0  0
  6 14  1  0  0  0  0
  7 15  1  0  0  0  0
  7 16  1  0  0  0  0
  7 17  1  0  0  0  0
M  END
