  20
 
 C         -2.2770000000        2.8570000000        2.7080000000
 N         -1.0460000000        2.5100000000        1.9970000000
 C         -0.5090000000        1.2350000000        2.4930000000
 C          0.8050000000        0.8810000000        1.7940000000
 C          0.6360000000        0.8490000000        0.2790000000
 C          0.0020000000        2.1440000000       -0.2140000000
 C         -1.2870000000        2.4580000000        0.5480000000
 H         -2.0910000000        2.8940000000        3.7840000000
 H         -3.0510000000        2.1110000000        2.5100000000
 H         -2.6400000000        3.8350000000        2.3790000000
 H         -0.3140000000        1.3080000000        3.5700000000
 H         -1.2330000000        0.4220000000        2.3470000000
 H          1.5730000000        1.6180000000        2.0620000000
 H          1.1610000000       -0.0930000000        2.1470000000
 H          1.6080000000        0.6970000000       -0.2040000000
 H          0.0000000000        0.0000000000        0.0000000000
 H          0.7130000000        2.9710000000       -0.0890000000
 H         -0.2120000000        2.0660000000       -1.2860000000
 H         -1.6620000000        3.4280000000        0.1990000000
 H         -2.0500000000        1.7060000000        0.3050000000
