22
 xtb: 6.7.1 (edcfbbe)
C            2.37870441639088        0.89013179444565        0.53884008461944
C            1.16351980582817       -0.02917694072425        0.50486441818267
C            1.40476064884151       -1.21935017576182       -0.44600603071073
C           -0.08695530714808        0.69814091819373        0.05655197420498
O           -0.00882473421151        1.75755594273154       -0.56137105199252
C           -1.46754405898994        0.10712328512201        0.31797220121447
C           -1.54892974630920       -0.92098044166430        1.44356149433010
C           -2.02838174559890       -0.45589482391156       -1.00095851458539
H            3.24212252364566        0.34506552618968        0.93220949717068
H            2.20375038325472        1.76180063978937        1.17673687982554
H            2.63089745659573        1.24688076368917       -0.46429529482489
H            0.97734612571677       -0.43184828609837        1.50701739479400
H            2.31986788289667       -1.73805095602403       -0.14431251447900
H            0.58534670676913       -1.94141281551585       -0.43039086238008
H            1.53382731766547       -0.86391070746822       -1.47394703391521
H           -2.08454908786530        0.97404015944445        0.58800973981892
H           -0.98811054865186       -1.83134516037210        1.20963606956538
H           -1.17375819069994       -0.51625014359440        2.38842588861781
H           -2.59468049385124       -1.20746557797233        1.59544918523968
H           -1.99297465848834        0.29361720427955       -1.79650079085328
H           -1.46563370847023       -1.33632905399531       -1.32550350915943
H           -3.07121733164087       -0.75412135883243       -0.85591564988400
