 28

C     -6.194000     2.718000     2.847000
C     -4.843000     2.760000     2.151000
C     -3.732000     3.184000     3.115000
C     -2.363000     3.236000     2.445000
N     -1.323000     3.634000     3.352000
C     -0.017000     3.678000     2.692000
C      1.076000     4.099000     3.653000
C      2.458000     4.155000     2.997000
C      3.527000     4.581000     3.991000
H     -6.984000     2.414000     2.152000
H     -6.174000     2.000000     3.673000
H     -6.456000     3.699000     3.256000
H     -4.620000     1.769000     1.740000
H     -4.899000     3.457000     1.308000
H     -3.972000     4.165000     3.543000
H     -3.686000     2.471000     3.946000
H     -2.359000     3.934000     1.602000
H     -2.094000     2.244000     2.067000
H     -1.265000     2.977000     4.138000
H      0.152000     2.688000     2.277000
H     -0.123000     4.394000     1.881000
H      1.107000     3.422000     4.516000
H      0.818000     5.095000     4.033000
H      2.444000     4.864000     2.160000
H      2.724000     3.174000     2.588000
H      4.512000     4.619000     3.515000
H      3.302000     5.576000     4.387000
H      3.579000     3.884000     4.834000
