  28
 
 C         -6.1940000000        2.7180000000        2.8470000000
 C         -4.8430000000        2.7600000000        2.1510000000
 C         -3.7320000000        3.1840000000        3.1150000000
 C         -2.3630000000        3.2360000000        2.4450000000
 N         -1.3230000000        3.6340000000        3.3520000000
 C         -0.0170000000        3.6780000000        2.6920000000
 C          1.0760000000        4.0990000000        3.6530000000
 C          2.4580000000        4.1550000000        2.9970000000
 C          3.5270000000        4.5810000000        3.9910000000
 H         -6.9840000000        2.4140000000        2.1520000000
 H         -6.1740000000        2.0000000000        3.6730000000
 H         -6.4560000000        3.6990000000        3.2560000000
 H         -4.6200000000        1.7690000000        1.7400000000
 H         -4.8990000000        3.4570000000        1.3080000000
 H         -3.9720000000        4.1650000000        3.5430000000
 H         -3.6860000000        2.4710000000        3.9460000000
 H         -2.3590000000        3.9340000000        1.6020000000
 H         -2.0940000000        2.2440000000        2.0670000000
 H         -1.2650000000        2.9770000000        4.1380000000
 H          0.1520000000        2.6880000000        2.2770000000
 H         -0.1230000000        4.3940000000        1.8810000000
 H          1.1070000000        3.4220000000        4.5160000000
 H          0.8180000000        5.0950000000        4.0330000000
 H          2.4440000000        4.8640000000        2.1600000000
 H          2.7240000000        3.1740000000        2.5880000000
 H          4.5120000000        4.6190000000        3.5150000000
 H          3.3020000000        5.5760000000        4.3870000000
 H          3.5790000000        3.8840000000        4.8340000000
