18
 xtb: 6.7.1 (edcfbbe)
C           -1.61204521464579        1.23141407684958        0.68960581941770
C           -1.38852293990239        0.00310879704885       -0.18857098955980
C           -0.00747670552658       -0.63808068884970       -0.05940625627007
C            1.15806978528871        0.31115451595773       -0.37985008179372
C            1.77106693367559        0.97806045126717        0.85235817134035
O            0.03924939480893       -1.81871128078255       -0.90135882149412
H           -0.95636939713301        2.05920076095093        0.40383442006542
H           -2.64469746155447        1.58187450476017        0.59512609498452
H           -1.43200393963905        1.00372879988817        1.74596777761157
H           -2.13793042001539       -0.76017334220843        0.05217649697702
H           -1.53451588280027        0.27467245242455       -1.24374038898194
H            0.12072930509426       -1.02848920260999        0.95877122693171
H            1.93776162397296       -0.27686311052873       -0.87737723052018
H            0.82590700783805        1.06966097580867       -1.10128779824288
H            1.04018166808222        1.56444326379543        1.41566580925662
H            2.18476543046892        0.22303772593329        1.52990273854428
H            2.58571288368201        1.65010617414913        0.56399463979743
H           -0.07148232471364       -1.51766616462399       -1.81372966253257
