21
 xtb: 6.7.1 (edcfbbe)
C            2.05466872181510       -1.38780330464488       -0.15923931432853
C            1.68014270442481        0.08697130286013       -0.26130689659725
C            0.32633551380726        0.47715575528831        0.32802313479415
H            0.32161284762033        0.26821080176687        1.41098168065893
C           -0.87499735558774       -0.26458247127397       -0.31283482039646
C           -1.20321028548881       -1.53633832607612        0.47745843693055
C           -2.13404780317841        0.60295701541809       -0.39317309368802
O            0.26184283058060        1.91232766363726        0.14224941546364
H            1.39529298197246       -2.02067693226710       -0.76011121331849
H            2.01813987328163       -1.74076064112291        0.87699264678580
H            3.07526637514997       -1.53812098694542       -0.52522320116193
H            2.44426457312477        0.68846140827969        0.24556017999193
H            1.68136260876374        0.39400304612175       -1.31575977449296
H           -0.59037454720998       -0.54498229495791       -1.33738585510295
H           -1.59113220160329       -1.27084938509393        1.46838244318179
H           -1.97313136814588       -2.12046282109246       -0.03756566005927
H           -0.33432802198606       -2.18158316866651        0.62356949900786
H           -1.99866007027597        1.47649649071097       -1.03664625007357
H           -2.43837072915643        0.94992062458447        0.60277860161880
H           -2.96217561989469        0.01459791543683       -0.80144367431553
H           -0.53985944537052        2.23020179700903        0.57554422026678
