 xtb: 6.7.1 (edcfbbe)
          04112512153D

 21 20  0     0  0            999 V2000
    1.7916   -1.0740    0.5192 C   0  0  0  0  0  0  0  0  0  0  0  0
    1.3229    0.3566    0.7668 C   0  0  0  0  0  0  0  0  0  0  0  0
    0.1777    0.8803   -0.1193 C   0  0  0  0  0  0  0  0  0  0  0  0
   -0.0198    1.9076    0.2185 H   0  0  0  0  0  0  0  0  0  0  0  0
   -1.1785    0.1318   -0.0502 C   0  0  0  0  0  0  0  0  0  0  0  0
   -1.2364   -1.1532   -0.8772 C   0  0  0  0  0  0  0  0  0  0  0  0
   -1.5994   -0.1302    1.3935 C   0  0  0  0  0  0  0  0  0  0  0  0
    0.6037    1.0493   -1.4610 O   0  0  0  0  0  0  0  0  0  0  0  0
    1.0636   -1.7978    0.8738 H   0  0  0  0  0  0  0  0  0  0  0  0
    2.7197   -1.2439    1.0605 H   0  0  0  0  0  0  0  0  0  0  0  0
    1.9845   -1.2555   -0.5355 H   0  0  0  0  0  0  0  0  0  0  0  0
    1.0275    0.4659    1.8100 H   0  0  0  0  0  0  0  0  0  0  0  0
    2.1649    1.0323    0.5932 H   0  0  0  0  0  0  0  0  0  0  0  0
   -1.9061    0.8224   -0.4954 H   0  0  0  0  0  0  0  0  0  0  0  0
   -2.2474   -1.5530   -0.8403 H   0  0  0  0  0  0  0  0  0  0  0  0
   -0.9987   -0.9485   -1.9183 H   0  0  0  0  0  0  0  0  0  0  0  0
   -0.5599   -1.9124   -0.4997 H   0  0  0  0  0  0  0  0  0  0  0  0
   -2.6268   -0.4857    1.4182 H   0  0  0  0  0  0  0  0  0  0  0  0
   -1.5388    0.7822    1.9821 H   0  0  0  0  0  0  0  0  0  0  0  0
   -0.9685   -0.8855    1.8534 H   0  0  0  0  0  0  0  0  0  0  0  0
    0.9272    0.1976   -1.7852 H   0  0  0  0  0  0  0  0  0  0  0  0
  1  2  1  0  0  0  0
  2  3  1  0  0  0  0
  3  4  1  0  0  0  0
  3  5  1  0  0  0  0
  5  6  1  0  0  0  0
  5  7  1  0  0  0  0
  3  8  1  0  0  0  0
  1  9  1  0  0  0  0
  1 10  1  0  0  0  0
  1 11  1  0  0  0  0
  2 12  1  0  0  0  0
  2 13  1  0  0  0  0
  5 14  1  0  0  0  0
  6 15  1  0  0  0  0
  6 16  1  0  0  0  0
  6 17  1  0  0  0  0
  7 18  1  0  0  0  0
  7 19  1  0  0  0  0
  7 20  1  0  0  0  0
  8 21  1  0  0  0  0
M  END
