  16
 
 C         -2.9550567752       -0.3528497224        0.1111959469
 C         -1.9606293353        0.5100704071       -0.0594999800
 C         -0.5331299798        0.2119120899       -0.0248928381
 C          0.3770563214        1.2703287419       -0.0211469659
 C          1.7385944618        1.0391521470        0.0153175927
 C          2.2216976502       -0.2583714042        0.0417058561
 C          1.3314239623       -1.3198221092        0.0312888666
 C         -0.0300168116       -1.0893896862       -0.0014551321
 H         -3.9834957263       -0.0366794053        0.0709207869
 H         -2.7924608018       -1.3996456650        0.3047140775
 H         -2.1969264906        1.5524313889       -0.2345051897
 H          0.0066425276        2.2859667460       -0.0418210542
 H          2.4261183844        1.8726108551        0.0211104864
 H          3.2856485247       -0.4421672824        0.0664284460
 H          1.7033607095       -2.3342405147        0.0459710772
 H         -0.7084038751       -1.9283311592       -0.0184510500
          16
        -21.15860830
 C         -2.9595280428        0.3519573328       -0.0222796850
 C         -1.9594360720       -0.5201201762        0.0171437884
 C         -0.5330139993       -0.2165918593        0.0093587399
 C          0.3795055282       -1.2731281311       -0.0001627926
 C          1.7411667752       -1.0394643390       -0.0098402366
 C          2.2224976821        0.2588717035       -0.0077256455
 C          1.3301125092        1.3186454232        0.0037690341
 C         -0.0312452926        1.0857004192        0.0120299224
 H         -3.9860142710        0.0268977388       -0.0143170358
 H         -2.8054314259        1.4165190520       -0.0660091425
 H         -2.1909656723       -1.5781156386        0.0552097517
 H          0.0110148992       -2.2896721773       -0.0009991818
 H          2.4302421182       -1.8717943790       -0.0174552012
 H          3.2864480306        0.4446476831       -0.0138476590
 H          1.7000755144        2.3338471403        0.0067555555
 H         -0.7102761342        1.9243884583        0.0233360672
