 16

C      1.383000    -0.058000    -2.328000
C      1.930000    -1.014000    -1.566000
C      1.885000    -1.036000    -0.112000
C      2.921000    -1.631000     0.608000
C      2.878000    -1.652000     2.002000
C      1.800000    -1.079000     2.676000
C      0.764000    -0.484000     1.955000
C      0.807000    -0.463000     0.561000
H      1.475000    -0.116000    -3.408000
H      0.852000     0.798000    -1.930000
H      2.466000    -1.813000    -2.074000
H      3.768000    -2.082000     0.098000
H      3.685000    -2.115000     2.563000
H      1.766000    -1.095000     3.761000
H     -0.076000    -0.038000     2.480000
H     -0.009000     0.004000     0.013000
