  16
 
 C          1.3830000000       -0.0580000000       -2.3280000000
 C          1.9300000000       -1.0140000000       -1.5660000000
 C          1.8850000000       -1.0360000000       -0.1120000000
 C          2.9210000000       -1.6310000000        0.6080000000
 C          2.8780000000       -1.6520000000        2.0020000000
 C          1.8000000000       -1.0790000000        2.6760000000
 C          0.7640000000       -0.4840000000        1.9550000000
 C          0.8070000000       -0.4630000000        0.5610000000
 H          1.4750000000       -0.1160000000       -3.4080000000
 H          0.8520000000        0.7980000000       -1.9300000000
 H          2.4660000000       -1.8130000000       -2.0740000000
 H          3.7680000000       -2.0820000000        0.0980000000
 H          3.6850000000       -2.1150000000        2.5630000000
 H          1.7660000000       -1.0950000000        3.7610000000
 H         -0.0760000000       -0.0380000000        2.4800000000
 H         -0.0090000000        0.0040000000        0.0130000000
