 xtb: 6.7.1 (edcfbbe)
          04112511393D

 22 22  0     0  0            999 V2000
   -4.0840    0.4971    0.9478 C   0  0  0  0  0  0  0  0  0  0  0  0
   -3.4497    0.5016   -0.4352 C   0  0  0  0  0  0  0  0  0  0  0  0
   -2.0236    0.6322   -0.3523 O   0  0  0  0  0  0  0  0  0  0  0  0
   -1.3000   -0.4785   -0.1951 C   0  0  0  0  0  0  0  0  0  0  0  0
   -1.7974   -1.5917   -0.1459 O   0  0  0  0  0  0  0  0  0  0  0  0
    0.1435   -0.2154   -0.1017 C   0  0  0  0  0  0  0  0  0  0  0  0
    0.6615    1.0785   -0.1580 C   0  0  0  0  0  0  0  0  0  0  0  0
    2.0207    1.2872   -0.0665 C   0  0  0  0  0  0  0  0  0  0  0  0
    2.8899    0.2059    0.0833 C   0  0  0  0  0  0  0  0  0  0  0  0
    2.3730   -1.0910    0.1406 C   0  0  0  0  0  0  0  0  0  0  0  0
    1.0163   -1.2957    0.0492 C   0  0  0  0  0  0  0  0  0  0  0  0
    4.2243    0.3579    0.1768 O   0  0  0  0  0  0  0  0  0  0  0  0
   -5.1640    0.4653    0.8481 H   0  0  0  0  0  0  0  0  0  0  0  0
   -3.7542   -0.3775    1.5045 H   0  0  0  0  0  0  0  0  0  0  0  0
   -3.7982    1.3922    1.4936 H   0  0  0  0  0  0  0  0  0  0  0  0
   -3.7709    1.3669   -1.0161 H   0  0  0  0  0  0  0  0  0  0  0  0
   -3.6864   -0.4240   -0.9692 H   0  0  0  0  0  0  0  0  0  0  0  0
   -0.0116    1.9126   -0.2739 H   0  0  0  0  0  0  0  0  0  0  0  0
    2.4132    2.2920   -0.1110 H   0  0  0  0  0  0  0  0  0  0  0  0
    3.0580   -1.9151    0.2568 H   0  0  0  0  0  0  0  0  0  0  0  0
    0.6009   -2.2909    0.0916 H   0  0  0  0  0  0  0  0  0  0  0  0
    4.4794    1.2932    0.1259 H   0  0  0  0  0  0  0  0  0  0  0  0
  1  2  1  0  0  0  0
  2  3  1  0  0  0  0
  3  4  1  0  0  0  0
  4  5  2  0  0  0  0
  4  6  1  0  0  0  0
  6  7  4  0  0  0  0
  7  8  4  0  0  0  0
  8  9  4  0  0  0  0
  9 10  4  0  0  0  0
  6 11  4  0  0  0  0
 10 11  4  0  0  0  0
  9 12  1  0  0  0  0
  1 13  1  0  0  0  0
  1 14  1  0  0  0  0
  1 15  1  0  0  0  0
  2 16  1  0  0  0  0
  2 17  1  0  0  0  0
  7 18  1  0  0  0  0
  8 19  1  0  0  0  0
 10 20  1  0  0  0  0
 11 21  1  0  0  0  0
 12 22  1  0  0  0  0
M  END
