 xtb: 6.7.1 (edcfbbe)
          04112512213D

 14 13  0     0  0            999 V2000
   -2.7635    0.2712   -0.0036 C   0  0  0  0  0  0  0  0  0  0  0  0
   -1.3469   -0.0193   -0.4836 C   0  0  0  0  0  0  0  0  0  0  0  0
   -0.3315    0.1415    0.6602 C   0  0  0  0  0  0  0  0  0  0  0  0
    1.0525   -0.1451    0.1385 C   0  0  0  0  0  0  0  0  0  0  0  0
    1.5687   -1.2394    0.1814 O   0  0  0  0  0  0  0  0  0  0  0  0
    1.6982    0.8688   -0.4336 O   0  0  0  0  0  0  0  0  0  0  0  0
   -3.4682    0.1438   -0.8208 H   0  0  0  0  0  0  0  0  0  0  0  0
   -2.8424    1.2910    0.3643 H   0  0  0  0  0  0  0  0  0  0  0  0
   -3.0408   -0.4076    0.7986 H   0  0  0  0  0  0  0  0  0  0  0  0
   -1.2864   -1.0405   -0.8646 H   0  0  0  0  0  0  0  0  0  0  0  0
   -1.0937    0.6555   -1.3034 H   0  0  0  0  0  0  0  0  0  0  0  0
   -0.3914    1.1496    1.0710 H   0  0  0  0  0  0  0  0  0  0  0  0
   -0.5587   -0.5807    1.4443 H   0  0  0  0  0  0  0  0  0  0  0  0
    1.2136    1.7137   -0.3972 H   0  0  0  0  0  0  0  0  0  0  0  0
  1  2  1  0  0  0  0
  2  3  1  0  0  0  0
  3  4  1  0  0  0  0
  4  5  2  0  0  0  0
  4  6  1  0  0  0  0
  1  7  1  0  0  0  0
  1  8  1  0  0  0  0
  1  9  1  0  0  0  0
  2 10  1  0  0  0  0
  2 11  1  0  0  0  0
  3 12  1  0  0  0  0
  3 13  1  0  0  0  0
  6 14  1  0  0  0  0
M  END
