  14
 
 C         -0.3389639370       -1.2089281624        0.0003213459
 C          1.0377111284       -1.2124692014        0.0003274864
 C          1.7412097254       -0.0076783015        0.0001186589
 C          1.0457372244        1.1993851400       -0.0000486924
 C         -0.3334541375        1.2066139005       -0.0000556945
 C         -1.0362573434        0.0016622161        0.0000871354
 C         -2.4481655564        0.0077571020        0.0000329770
 N         -3.5950723153        0.0149166152       -0.0004144742
 O          3.0930894056       -0.0601449820        0.0000716385
 H         -0.8865924418       -2.1394093773        0.0005119125
 H          1.5945957294       -2.1356633143        0.0004633107
 H          1.5922075069        2.1333050627       -0.0001967934
 H         -0.8738991439        2.1414815298       -0.0001527914
 H          3.4647972948        0.8308471258       -0.0000912462
          14
        -24.47531075
 C         -0.3375649076       -1.2063516719       -0.0002409995
 C          1.0417624412       -1.2031709361       -0.0002052882
 C          1.7405270572        0.0018676907       -0.0000454020
 C          1.0405126819        1.2087586805       -0.0002163003
 C         -0.3361040628        1.2092363079       -0.0001645110
 C         -1.0367635883        0.0005198310       -0.0000984558
 C         -2.4487475192       -0.0013699471        0.0002321562
 N         -3.5957126869       -0.0052649024        0.0002225516
 O          3.0925624862        0.0509033773        0.0003820252
 H         -0.8804821670       -2.1397624235       -0.0002819329
 H          1.5852326295       -2.1387802753       -0.0001782341
 H          1.6003935903        2.1301108838       -0.0003778148
 H         -0.8810184725        2.1412608399       -0.0003287810
 H          3.4624302089       -0.8407935418        0.0008138976
