 14

C      1.885000    -1.036000    -0.112000
C      2.921000    -1.631000     0.608000
C      2.878000    -1.652000     2.002000
C      1.800000    -1.079000     2.676000
C      0.764000    -0.484000     1.955000
C      0.807000    -0.463000     0.561000
C     -0.255000     0.146000    -0.177000
N     -1.118000     0.641000    -0.777000
O      3.889000    -2.232000     2.705000
H      1.932000    -1.028000    -1.199000
H      3.758000    -2.077000     0.078000
H      1.761000    -1.092000     3.761000
H     -0.070000    -0.041000     2.494000
H      3.716000    -2.167000     3.658000
