  27
 
 C          2.9615022068        1.8769656163       -0.3104324637
 C          1.6716784646        1.1815491040       -0.0474228364
 C          1.5236498526       -0.1155535757        0.2923729856
 C          0.2092260729       -0.6993841930        0.5672525570
 O          0.0741768113       -1.7589658676        1.1317060361
 N         -0.8698732680        0.0782077411        0.1202647815
 C         -0.7575955509        1.4506266152        0.0243082944
 O         -1.6739387417        2.2389074452        0.0560851206
 N          0.5297539849        1.9305165852       -0.1243400803
 C         -2.2301655827       -0.5288006765       -0.0227163303
 C         -2.1240939410       -2.0137326239       -0.3823722882
 C         -2.9889725506       -0.3441577962        1.2898195633
 C         -2.9648674068        0.1489518452       -1.1862998588
 Cl         2.8646254632       -1.1761679007        0.5035588342
 H          3.1550054567        2.6159588242        0.4662533560
 H          2.9191714192        2.3925315524       -1.2685086889
 H          3.7750349809        1.1589726346       -0.3231026436
 H          0.5967746701        2.9341130619       -0.2318669713
 H         -3.1107331229       -2.3720114255       -0.6638978051
 H         -1.4521006227       -2.1552984350       -1.2261674867
 H         -1.7666118514       -2.6108075049        0.4486823328
 H         -3.9786708285       -0.7847654061        1.2091320085
 H         -3.0924477417        0.7142494071        1.5149120490
 H         -2.4526201626       -0.8319355654        2.1004188385
 H         -3.8906368453       -0.3864995752       -1.3757744327
 H         -3.2072692291        1.1820868656       -0.9664786537
 H         -2.3552769333        0.1140727326       -2.0869851212
          27
        -44.49390916
 C          2.9887119331        1.8517378501        0.2752599296
 C          1.6907364354        1.1450551099        0.0950113308
 C          1.5197190065       -0.1900057268       -0.0001246749
 C          0.2017234712       -0.7878327296       -0.2100336578
 O          0.0551824787       -1.9408974582       -0.5422669013
 N         -0.8750561472        0.0860448280        0.0082729966
 C         -0.7240779472        1.4466982992       -0.1660613264
 O         -1.6024841544        2.2342642818       -0.4271361954
 N          0.5686314953        1.9179593854       -0.0185442729
 C         -2.2467063378       -0.4903689339        0.1678382047
 C         -2.1698964883       -1.7690845884        1.0108478152
 C         -3.1505135279        0.4802115375        0.9353044493
 C         -2.8166534727       -0.7790977216       -1.2194599915
 Cl         2.8375941686       -1.2985051322        0.0478617277
 H          3.7901631610        1.1312162297        0.4014036981
 H          2.9438275365        2.4975656283        1.1508681062
 H          3.2022515229        2.4716026516       -0.5947661543
 H          0.6622443586        2.9216710899       -0.1035985710
 H         -3.1794930355       -2.0865172691        1.2565644329
 H         -1.6777063542       -2.5773416549        0.4822044981
 H         -1.6320978756       -1.5780957134        1.9374398358
 H         -4.0765823793       -0.0315263513        1.1828437591
 H         -3.3910565790        1.3614637263        0.3521656337
 H         -2.6720243268        0.7940376842        1.8607497945
 H         -2.1816767217       -1.4897274352       -1.7423942883
 H         -3.8142830277       -1.1995242027       -1.1294672833
 H         -2.8739232565        0.1415461649       -1.7956213518
