 27

C     -0.476000    -0.958000     0.236000
C     -1.559000    -1.258000    -0.763000
C     -1.609000    -2.333000    -1.564000
C     -2.748000    -2.515000    -2.511000
O     -2.814000    -3.518000    -3.220000
N     -3.694000    -1.478000    -2.508000
C     -3.654000    -0.360000    -1.650000
O     -4.516000     0.522000    -1.627000
N     -2.556000    -0.313000    -0.809000
C     -4.796000    -1.563000    -3.460000
C     -4.646000    -2.843000    -4.285000
C     -6.116000    -1.589000    -2.687000
C     -4.753000    -0.343000    -4.384000
Cl    -0.408000    -3.573000    -1.574000
H     -0.723000    -1.397000     1.206000
H     -0.360000     0.122000     0.357000
H      0.478000    -1.371000    -0.104000
H     -2.480000     0.480000    -0.177000
H     -5.457000    -2.944000    -5.015000
H     -3.697000    -2.851000    -4.834000
H     -4.673000    -3.733000    -3.646000
H     -6.973000    -1.653000    -3.367000
H     -6.244000    -0.680000    -2.088000
H     -6.159000    -2.448000    -2.009000
H     -5.569000    -0.370000    -5.116000
H     -4.844000     0.588000    -3.813000
H     -3.813000    -0.302000    -4.947000
