  27
 
 C         -0.4760000000       -0.9580000000        0.2360000000
 C         -1.5590000000       -1.2580000000       -0.7630000000
 C         -1.6090000000       -2.3330000000       -1.5640000000
 C         -2.7480000000       -2.5150000000       -2.5110000000
 O         -2.8140000000       -3.5180000000       -3.2200000000
 N         -3.6940000000       -1.4780000000       -2.5080000000
 C         -3.6540000000       -0.3600000000       -1.6500000000
 O         -4.5160000000        0.5220000000       -1.6270000000
 N         -2.5560000000       -0.3130000000       -0.8090000000
 C         -4.7960000000       -1.5630000000       -3.4600000000
 C         -4.6460000000       -2.8430000000       -4.2850000000
 C         -6.1160000000       -1.5890000000       -2.6870000000
 C         -4.7530000000       -0.3430000000       -4.3840000000
 Cl        -0.4080000000       -3.5730000000       -1.5740000000
 H         -0.7230000000       -1.3970000000        1.2060000000
 H         -0.3600000000        0.1220000000        0.3570000000
 H          0.4780000000       -1.3710000000       -0.1040000000
 H         -2.4800000000        0.4800000000       -0.1770000000
 H         -5.4570000000       -2.9440000000       -5.0150000000
 H         -3.6970000000       -2.8510000000       -4.8340000000
 H         -4.6730000000       -3.7330000000       -3.6460000000
 H         -6.9730000000       -1.6530000000       -3.3670000000
 H         -6.2440000000       -0.6800000000       -2.0880000000
 H         -6.1590000000       -2.4480000000       -2.0090000000
 H         -5.5690000000       -0.3700000000       -5.1160000000
 H         -4.8440000000        0.5880000000       -3.8130000000
 H         -3.8130000000       -0.3020000000       -4.9470000000
