 xtb: 6.7.1 (edcfbbe)
          04112512193D

 17 16  0     0  0            999 V2000
   -2.7037    0.6300   -0.4903 C   0  0  0  0  0  0  0  0  0  0  0  0
   -1.7199    0.3640    0.6500 C   0  0  0  0  0  0  0  0  0  0  0  0
   -0.5105   -0.3739    0.1355 C   0  0  0  0  0  0  0  0  0  0  0  0
   -0.5368   -1.4633   -0.4005 O   0  0  0  0  0  0  0  0  0  0  0  0
    0.6055    0.3144    0.3253 O   0  0  0  0  0  0  0  0  0  0  0  0
    1.8421   -0.2629   -0.1291 C   0  0  0  0  0  0  0  0  0  0  0  0
    2.9244    0.7944   -0.0270 C   0  0  0  0  0  0  0  0  0  0  0  0
   -3.6083    1.0854   -0.0995 H   0  0  0  0  0  0  0  0  0  0  0  0
   -2.2632    1.2990   -1.2251 H   0  0  0  0  0  0  0  0  0  0  0  0
   -2.9610   -0.3046   -0.9827 H   0  0  0  0  0  0  0  0  0  0  0  0
   -2.1986   -0.2673    1.4000 H   0  0  0  0  0  0  0  0  0  0  0  0
   -1.3914    1.2944    1.1103 H   0  0  0  0  0  0  0  0  0  0  0  0
    2.0648   -1.1320    0.4983 H   0  0  0  0  0  0  0  0  0  0  0  0
    1.7042   -0.6107   -1.1581 H   0  0  0  0  0  0  0  0  0  0  0  0
    3.8697    0.3731   -0.3528 H   0  0  0  0  0  0  0  0  0  0  0  0
    2.6753    1.6451   -0.6546 H   0  0  0  0  0  0  0  0  0  0  0  0
    3.0164    1.1323    1.0008 H   0  0  0  0  0  0  0  0  0  0  0  0
  1  2  1  0  0  0  0
  2  3  1  0  0  0  0
  3  4  2  0  0  0  0
  3  5  1  0  0  0  0
  5  6  1  0  0  0  0
  6  7  1  0  0  0  0
  1  8  1  0  0  0  0
  1  9  1  0  0  0  0
  1 10  1  0  0  0  0
  2 11  1  0  0  0  0
  2 12  1  0  0  0  0
  6 13  1  0  0  0  0
  6 14  1  0  0  0  0
  7 15  1  0  0  0  0
  7 16  1  0  0  0  0
  7 17  1  0  0  0  0
M  END
