  8
 
 C         -0.7649382592       -0.0000837012        0.0004055085
 C          0.7648787727        0.0001494803       -0.0003462222
 Cl         1.3578735493       -1.4590482390        0.8077525171
 Cl         1.3564916635        0.0298510903       -1.6685000302
 Cl         1.3574227900        1.4299281895        0.8589379636
 Cl        -1.3565185010       -0.0297210567        1.6685710404
 Cl        -1.3574755228       -1.4298713285       -0.8589486231
 Cl        -1.3578392578        1.4591263065       -0.8076810681
           8
        -31.56711703
 C         -0.7649285663       -0.0000197990        0.0000161479
 C          0.7648886679       -0.0000018008       -0.0000046050
 Cl         1.3572907404       -1.5370305190        0.6484758230
 Cl         1.3573008259        0.2069568353       -1.6552511375
 Cl         1.3572263098        1.3300899447        1.0068404418
 Cl        -1.3573080717       -0.2069157996        1.6552811912
 Cl        -1.3572594225       -1.3301129690       -1.0068993934
 Cl        -1.3572368648        1.5370198254       -0.6484508356
