 8

C      0.206000    -0.363000    -0.655000
C     -0.205000     0.363000     0.655000
Cl    -1.216000     1.823000     0.325000
Cl    -1.166000    -0.709000     1.744000
Cl     1.233000     0.918000     1.595000
Cl     1.167000     0.709000    -1.744000
Cl    -1.233000    -0.918000    -1.595000
Cl     1.216000    -1.823000    -0.325000
