  24
 
 C          1.5040000000        3.3310000000        0.9520000000
 C          1.5690000000        1.8420000000        1.2540000000
 C          0.3830000000        1.0940000000        0.6430000000
 C          0.4550000000       -0.4030000000        0.9520000000
 C         -0.7120000000       -1.2030000000        0.3620000000
 C         -0.6390000000       -2.7000000000        0.6710000000
 C         -1.8020000000       -3.4340000000        0.0710000000
 C         -2.6920000000       -4.1350000000        0.7830000000
 H          2.3550000000        3.8580000000        1.3930000000
 H          1.5080000000        3.5120000000       -0.1280000000
 H          0.5870000000        3.7620000000        1.3650000000
 H          2.5080000000        1.4360000000        0.8610000000
 H          1.5810000000        1.6970000000        2.3410000000
 H          0.3790000000        1.2550000000       -0.4410000000
 H         -0.5540000000        1.5070000000        1.0370000000
 H          1.4040000000       -0.8120000000        0.5850000000
 H          0.4500000000       -0.5450000000        2.0400000000
 H         -0.7500000000       -1.0450000000       -0.7240000000
 H         -1.6450000000       -0.7940000000        0.7700000000
 H          0.2800000000       -3.1300000000        0.2570000000
 H         -0.6030000000       -2.8510000000        1.7570000000
 H         -1.9140000000       -3.3960000000       -1.0090000000
 H         -3.5190000000       -4.6510000000        0.3090000000
 H         -2.6020000000       -4.2010000000        1.8620000000
