23
 xtb: 6.7.1 (edcfbbe)
C           -1.70347265304260       -0.63840535235893        1.01342036044816
C           -1.27341886941248       -0.33660334252452       -0.42253311966590
C           -2.38193388744955        0.42045244164309       -1.15527749943470
C            0.04248569652159        0.45055043783596       -0.50451921305130
C            1.26758655134620       -0.22799308941165        0.14560875479421
C            2.51697184796800       -0.04455181593934       -0.71929260175894
C            1.53641284257017        0.30345631461747        1.55631993824355
H           -2.65488933829066       -1.18265630241829        1.02369393992423
H           -0.96663314427249       -1.25067462529087        1.54283017106410
H           -1.84358457860840        0.29110718848332        1.57978050456411
H           -1.11436465124111       -1.29616443292321       -0.93694633516639
H           -3.31687526328106       -0.15038736200866       -1.16052107752873
H           -2.57938567459236        1.38074521276243       -0.66309731638176
H           -2.10511449059261        0.62727927795992       -2.19483084701857
H           -0.10795874886386        1.44289538582786       -0.05234600495020
H            0.25227417961371        0.62879124098427       -1.56769286822789
H            1.06243208453272       -1.30623141195913        0.21553525406323
H            2.37997187036060       -0.48173991189934       -1.71420234279612
H            2.73956619820042        1.02202074241306       -0.84838331358846
H            3.39267353967674       -0.51575781755654       -0.25870107792123
H            0.65619140773892        0.22522883661053        2.20068161192666
H            2.35630048568674       -0.24331991689281        2.03538450633796
H            1.82194091808447        1.36173365605623        1.50982245934053
