 xtb: 6.7.1 (edcfbbe)
          04112512403D

 18 17  0     0  0            999 V2000
   -1.9751    1.4474    0.0739 C   0  0  0  0  0  0  0  0  0  0  0  0
   -1.4858    0.0818   -0.3974 C   0  0  0  0  0  0  0  0  0  0  0  0
   -0.1603   -0.3515    0.2392 C   0  0  0  0  0  0  0  0  0  0  0  0
   -0.2105   -0.1560    1.3171 H   0  0  0  0  0  0  0  0  0  0  0  0
    0.0751   -1.8463    0.0260 C   0  0  0  0  0  0  0  0  0  0  0  0
    1.0210    0.4415   -0.3363 C   0  0  0  0  0  0  0  0  0  0  0  0
    2.2450    0.1636    0.3123 O   0  0  0  0  0  0  0  0  0  0  0  0
   -2.9454    1.6669   -0.3643 H   0  0  0  0  0  0  0  0  0  0  0  0
   -2.0776    1.4619    1.1566 H   0  0  0  0  0  0  0  0  0  0  0  0
   -1.2875    2.2367   -0.2181 H   0  0  0  0  0  0  0  0  0  0  0  0
   -1.3743    0.0872   -1.4837 H   0  0  0  0  0  0  0  0  0  0  0  0
   -2.2430   -0.6640   -0.1467 H   0  0  0  0  0  0  0  0  0  0  0  0
   -0.6630   -2.4339    0.5658 H   0  0  0  0  0  0  0  0  0  0  0  0
    1.0674   -2.1219    0.3756 H   0  0  0  0  0  0  0  0  0  0  0  0
    0.0069   -2.0889   -1.0323 H   0  0  0  0  0  0  0  0  0  0  0  0
    0.8159    1.5184   -0.2939 H   0  0  0  0  0  0  0  0  0  0  0  0
    1.1789    0.1629   -1.3815 H   0  0  0  0  0  0  0  0  0  0  0  0
    2.1740    0.4302    1.2392 H   0  0  0  0  0  0  0  0  0  0  0  0
  1  2  1  0  0  0  0
  2  3  1  0  0  0  0
  3  4  1  0  0  0  0
  3  5  1  0  0  0  0
  3  6  1  0  0  0  0
  6  7  1  0  0  0  0
  1  8  1  0  0  0  0
  1  9  1  0  0  0  0
  1 10  1  0  0  0  0
  2 11  1  0  0  0  0
  2 12  1  0  0  0  0
  5 13  1  0  0  0  0
  5 14  1  0  0  0  0
  5 15  1  0  0  0  0
  6 16  1  0  0  0  0
  6 17  1  0  0  0  0
  7 18  1  0  0  0  0
M  END
