21
CONF4
C -3.0097769125 0.2964671601 -0.1318562995
C -1.5717035854 0.6044771924 0.2713874710
C -0.5942953486 -0.3428929862 -0.4234962719
C 0.8902597639 -0.1639083510 -0.0408589794
C 1.3859624441 1.2529105001 -0.3481899838
C 1.7290639442 -1.1819726738 -0.8200150096
O 1.0964059074 -0.4705862584 1.3362481219
H -3.2737324832 -0.7223302928 0.1428632868
H -3.1345468298 0.4037876308 -1.2069295186
H -3.6986028270 0.9759213264 0.3642085943
H -1.3448801154 1.6380394014 0.0055492338
H -1.4800404856 0.5004505700 1.3546179186
H -0.8739164948 -1.3708268770 -0.1796980529
H -0.6841344881 -0.2193476794 -1.5039493289
H 1.2196743236 1.4884021871 -1.3951085004
H 2.4506929642 1.3201106603 -0.1373233609
H 0.8692294345 1.9882478305 0.2635192939
H 1.6419098104 -1.0079121023 -1.8876429722
H 1.3914410730 -2.1890825379 -0.5907104704
H 2.7715353098 -1.0968386405 -0.5251774664
H 0.6895865466 0.2191608370 1.8763984665
21
CONF2
C -3.0119842375 0.2691247399 -0.1744333252
C -1.5749742629 0.1573641823 -0.6723779197
C -0.6038464963 0.0398935202 0.4980417923
C 0.8867480029 -0.0815693132 0.1363879492
C 1.3920562221 1.1568866553 -0.6111978631
C 1.1699063344 -1.3424135860 -0.6870867811
O 1.5423323730 -0.1782849570 1.4028818773
H -3.2825248840 -0.6083101504 0.4084316353
H -3.7001418000 0.3519971548 -1.0120578617
H -3.1296043112 1.1470927622 0.4565471336
H -1.4899399006 -0.7192962277 -1.3156051632
H -1.3360134573 1.0400515075 -1.2667776076
H -0.7086139793 0.9131973250 1.1461624695
H -0.8624671641 -0.8357040854 1.0981727706
H 0.9017311827 1.2468041439 -1.5750328535
H 2.4647205972 1.0813972839 -0.7782234996
H 1.1940803867 2.0512843857 -0.0254108561
H 0.8119733803 -2.2213302303 -0.1563619494
H 2.2401900176 -1.4485434806 -0.8526501207
H 0.6788790828 -1.2851418837 -1.6530486980
H 2.4950437951 -0.2582690064 1.2589062847
21
CONF3
C -3.0138481571 0.2724557241 -0.2057313396
C -1.5657683928 0.1982466187 -0.6787959731
C -0.6149670615 0.0171406488 0.5019576042
C 0.8808592284 -0.0912570674 0.1464469130
C 1.3831638700 1.1584328964 -0.5783033200
C 1.1690911867 -1.3417584231 -0.6916349627
O 1.6297883686 -0.1489787873 1.3630697825
H -3.1496693345 1.1088307911 0.4762092678
H -3.2942922982 -0.6411133646 0.3138166607
H -3.6840540207 0.4060956607 -1.0512102882
H -1.4598365609 -0.6381290085 -1.3708932854
H -1.3195340890 1.1153145751 -1.2147203850
H -0.7296953737 0.8617663642 1.1865594898
H -0.9032392045 -0.8871123736 1.0464326409
H 1.1293832088 2.0458775046 -0.0048889433
H 0.9502381982 1.2299997229 -1.5700451997
H 2.4653177343 1.1061856150 -0.6651225233
H 0.7429857092 -1.2431417350 -1.6847292785
H 0.7513476268 -2.2270683183 -0.2166655032
H 2.2447182990 -1.4711868563 -0.7871039578
H 1.3762547529 -0.9428236107 1.8525120473
21
CONF1
C -2.9983445120 0.2451730525 -0.0543773137
C -1.6286044217 -0.4135502087 0.0565022637
C -0.5112409901 0.5673473181 -0.2930756787
C 0.9040000828 0.0294259297 -0.0203587935
C 1.9323466323 1.1053549938 -0.3966586326
C 1.1876899930 -1.2500621666 -0.8164125072
O 0.9704040579 -0.2352337179 1.3787688847
H -3.7834161741 -0.4670798715 0.1871662090
H -3.1635345689 0.6107840007 -1.0655900811
H -3.0744933456 1.0862860630 0.6309904756
H -1.4722956939 -0.7704354236 1.0759938665
H -1.5913639665 -1.2725244185 -0.6150218191
H -0.5836286208 0.8503580399 -1.3441186649
H -0.6401117486 1.4675770519 0.3119545342
H 1.7613406377 2.0039678244 0.1913337198
H 1.8475082424 1.3529367580 -1.4505283237
H 2.9428321436 0.7511739932 -0.2034551176
H 2.2345620048 -1.5303562902 -0.7188594655
H 0.9678333445 -1.0928536768 -1.8680965383
H 0.5759774552 -2.0671578559 -0.4440688233
H 1.8518050637 -0.5692574610 1.5915551495
21
CONF20
C -2.2802172050 0.6409616634 0.7231525375
C -1.7410930993 0.3241819375 -0.6688439873
C -0.5520544026 -0.6415103907 -0.6939669929
C 0.7713464471 -0.1807016447 -0.0421769877
C 1.1006135553 1.2803224115 -0.3653593896
C 1.9047355487 -1.0812915546 -0.5485035663
O 0.7434429509 -0.3836207249 1.3689643263
H -3.2444590404 1.1383272762 0.6424625233
H -1.6153898481 1.3061956968 1.2694428907
H -2.4164296222 -0.2727150155 1.2973567726
H -2.5409019828 -0.1450909612 -1.2470322357
H -1.4771946657 1.2512009599 -1.1794225625
H -0.8414853750 -1.5742434633 -0.2025758653
H -0.3383800944 -0.8731496825 -1.7390352241
H 0.3743301793 1.9553023805 0.0796208390
H 1.1100579879 1.4312557038 -1.4408145460
H 2.0823205039 1.5257599450 0.0331626420
H 1.6544833028 -2.1238118604 -0.3708514518
H 2.8169941996 -0.8524670912 -0.0038283093
H 2.0717279948 -0.9261542692 -1.6095821218
H 0.0567087225 0.1740667883 1.7558723963
21
CONF16
C -2.5952435514 -0.3497726701 -0.6941598273
C -1.7395228545 0.0593405877 0.5009521173
C -0.4898940193 0.8587254572 0.1020950644
C 0.8310228873 0.0635101232 0.0293136766
C 1.9349761566 0.9840980265 -0.5009000757
C 0.7215556027 -1.1726793799 -0.8687887820
O 1.2513323199 -0.3186275742 1.3378953197
H -3.4674273648 -0.9067787563 -0.3587819623
H -2.0363442957 -0.9723243882 -1.3864795544
H -2.9396691046 0.5323725453 -1.2290585482
H -2.3522968259 0.6720499201 1.1652537930
H -1.4579265693 -0.8328327271 1.0644056132
H -0.6600903871 1.3289109850 -0.8668608611
H -0.3257131813 1.6564271361 0.8301980071
H 2.8859775423 0.4586340102 -0.4800927008
H 2.0179304665 1.8636121061 0.1319962083
H 1.7172265605 1.2923148994 -1.5184236255
H -0.0166906091 -1.8718756393 -0.4851550186
H 1.6839429829 -1.6784975841 -0.9034815176
H 0.4436204786 -0.8789164597 -1.8765125734
H 0.5779149041 -0.8870182309 1.7340840284
21
CONF7
C -2.6042256555 -0.4371966386 -0.5777329389
C -1.7008017602 0.1316084993 0.5111144129
C -0.4819416365 0.8824200725 -0.0438283927
C 0.8322671360 0.0742049737 0.0029620504
C 1.9844435973 0.9633398273 -0.4839141115
C 0.7606053971 -1.1878279252 -0.8574851047
O 1.0896495752 -0.3721847551 1.3319918061
H -2.9981848786 0.3651746912 -1.1981398050
H -3.4431972902 -0.9660275797 -0.1307859291
H -2.0640672963 -1.1300643781 -1.2162372140
H -2.2935578648 0.8121233602 1.1260031664
H -1.3519533550 -0.6727375162 1.1625626050
H -0.6677400425 1.1821131887 -1.0754643289
H -0.3262632697 1.7943506102 0.5380603070
H 2.0370236654 1.8801519922 0.0999704605
H 1.8402739142 1.2253698782 -1.5277873741
H 2.9276196230 0.4316672619 -0.3822878958
H 0.4946857361 -0.9347881759 -1.8788669348
H 0.0275872647 -1.8756592407 -0.4474897529
H 1.7275996225 -1.6844249581 -0.8513246080
H 1.2083424733 0.3976888811 1.9038996534
21
CONF10
C -2.6115838086 -0.4801473567 -0.5237741541
C -1.6418731496 0.6915675650 -0.4064493925
C -0.5604889690 0.4777636857 0.6614958766
C 0.8107616729 -0.0231911674 0.1617893986
C 1.5164532117 1.0446005816 -0.6820002161
C 0.7024705118 -1.3303114255 -0.6225589852
O 1.6150664405 -0.3335916806 1.3028484173
H -3.3592482265 -0.2732936919 -1.2863479024
H -3.1249067327 -0.6418812341 0.4215801987
H -2.0931580855 -1.3957528761 -0.7916230239
H -1.1803402572 0.8782676646 -1.3762466793
H -2.2166568817 1.5830951963 -0.1476754025
H -0.3856547687 1.4210958987 1.1860652357
H -0.9219452794 -0.2409282443 1.4007491646
H 0.9858390094 1.2146225958 -1.6132766679
H 2.5259899961 0.7134420556 -0.9141391177
H 1.5735953197 1.9856994309 -0.1387824136
H 1.7022345429 -1.6868865381 -0.8576873289
H 0.1523369545 -1.1822761719 -1.5452066195
H 0.2080577435 -2.0834673919 -0.0150955604
H 1.7590766540 0.4719313694 1.8168895860
21
CONF9
C -2.5099363037 0.9358909927 -0.4097367672
C -1.7351953525 -0.3784268282 -0.4110167404
C -0.6153532775 -0.4197353445 0.6353084502
C 0.8104310558 -0.1190328616 0.1369993105
C 0.9054889110 1.2321933978 -0.5768784725
C 1.3263160220 -1.2357863790 -0.7774657304
O 1.5926102721 -0.0847500464 1.3334827005
H -3.2970286333 0.9084787707 -1.1601539774
H -1.8593248537 1.7778347020 -0.6262571856
H -2.9703654175 1.1009456606 0.5617511630
H -2.4374316500 -1.1873564301 -0.2013150142
H -1.3289072939 -0.5576009558 -1.4068836514
H -0.8322265267 0.2933830860 1.4331034930
H -0.5754763616 -1.4073234292 1.0990813161
H 0.3003684869 1.2311099449 -1.4773968978
H 1.9375816023 1.4342124659 -0.8578282244
H 0.5664335688 2.0253877179 0.0850473039
H 1.3408009078 -2.1782937110 -0.2350920898
H 2.3362515436 -1.0118491917 -1.1149529109
H 0.6899665834 -1.3442465439 -1.6499159535
H 2.5160822128 0.0806597457 1.0999613239
21
CONF5
C -2.2758023050 0.4625384694 0.7999157747
C -1.7105706424 0.4748686955 -0.6157104566
C -0.5456690691 -0.4974981633 -0.8170160804
C 0.7664847963 -0.1765837338 -0.0671060032
C 1.2075063807 1.2729285919 -0.2783238993
C 1.8604249886 -1.1247480333 -0.5821075850
O 0.6212804638 -0.3440712496 1.3406072025
H -1.5055320493 0.7204989516 1.5214360910
H -2.6619297805 -0.5243002817 1.0466931094
H -3.0889984909 1.1795838353 0.8874283497
H -2.5031705980 0.1939622289 -1.3144442604
H -1.3941227692 1.4857875630 -0.8738582171
H -0.8721078255 -1.4980996192 -0.5194961797
H -0.3090930438 -0.5317645700 -1.8822655247
H 0.5396339936 1.9455511664 0.2512892178
H 1.2085906403 1.5178513763 -1.3357958368
H 2.2084238110 1.4087343012 0.1228497948
H 2.7593923570 -1.0059505263 0.0185169362
H 2.0995836963 -0.8992297757 -1.6170158797
H 1.5322677173 -2.1604345863 -0.5188271714
H 0.4383664811 -1.2742606367 1.5271436566
21
CONF8
C -2.4782645615 0.9990535472 -0.3123706987
C -1.7212923547 -0.0615990942 0.4802343879
C -0.6002252654 -0.7388809240 -0.3198743618
C 0.8105810536 -0.1866457981 -0.0466115708
C 0.9291997867 1.3030355624 -0.3849262070
C 1.8275091583 -0.9803969042 -0.8792168565
O 1.0558826048 -0.3947966089 1.3428555549
H -1.8188637300 1.7946540735 -0.6455879102
H -3.2603427082 1.4379169748 0.3032387097
H -2.9444810874 0.5517121641 -1.1877443180
H -1.2956369474 0.3733941521 1.3856348431
H -2.4357570433 -0.8236822531 0.7977316525
H -0.5716674802 -1.7984727497 -0.0592229785
H -0.8069188002 -0.6605297845 -1.3874180229
H 0.6167379637 1.4801239927 -1.4096464973
H 1.9615032669 1.6309922500 -0.2768205726
H 0.3104210239 1.8919716836 0.2862054767
H 1.6049976634 -0.8816737799 -1.9374748972
H 1.7892270653 -2.0327789184 -0.6079464237
H 2.8359304473 -0.6127201440 -0.7009138949
H 1.9412076068 -0.0708878525 1.5550466229
21
CONF17
C -2.3153794126 -0.1205041858 -1.0262544084
C -1.7697234122 0.6650398396 0.1606212627
C -0.5923983087 0.0126960459 0.8909227587
C 0.7650018287 -0.0929874119 0.1584693787
C 1.0983843629 1.1845096376 -0.6176724606
C 0.8386575653 -1.3130706664 -0.7613241415
O 1.7792906466 -0.3277446883 1.1421411746
H -3.2673153006 0.3014438138 -1.3412149562
H -2.4747619828 -1.1613810049 -0.7554831876
H -1.6382973961 -0.0818322876 -1.8748394441
H -1.4960805569 1.6696944545 -0.1632848965
H -2.5720715134 0.7706993149 0.8953645882
H -0.4169854822 0.5973561882 1.7993127403
H -0.8797120266 -0.9915884751 1.2105268440
H 2.1286044763 1.1340590426 -0.9634264905
H 0.9862577385 2.0603673343 0.0182731403
H 0.4495968624 1.2898202430 -1.4809206944
H 0.1274719463 -1.2397697559 -1.5743004882
H 0.6383658997 -2.2140383345 -0.1874163017
H 1.8433900260 -1.3885174586 -1.1700246533
H 1.8683284379 0.4560152739 1.7005654896
21
CONF6
C -2.3486881682 -0.3228262891 0.6781785438
C -1.7459087145 0.0054336965 -0.6820630415
C -0.4410613978 0.7999708793 -0.5949422688
C 0.7896244225 0.0631734099 -0.0305140632
C 2.0306681802 0.9365222044 -0.2729542230
C 0.9973200867 -1.3050565927 -0.6911477593
O 0.5890879957 -0.0919787382 1.3715716674
H -3.2682362737 -0.8916371129 0.5584180866
H -2.5749258655 0.5920268107 1.2211828462
H -1.6519999541 -0.9012852103 1.2772620002
H -1.5834880006 -0.9146190408 -1.2444500380
H -2.4615750615 0.6088868616 -1.2464030219
H -0.1832484885 1.1473240113 -1.5969321965
H -0.6080251612 1.6763518269 0.0350991426
H 2.9130902476 0.4706391129 0.1613761603
H 1.8932753456 1.9127934070 0.1860001739
H 2.1988780697 1.0680040082 -1.3376682574
H 1.9632500931 -1.7165397103 -0.4050966393
H 0.9690054746 -1.2071008848 -1.7723200734
H 0.2223679327 -1.9982998913 -0.3756671756
H 1.3772979937 -0.4983474084 1.7557064640
21
CONF18
C -2.3015351433 0.7547560531 -0.8639003993
C -1.8428189431 -0.4234292952 -0.0122479300
C -0.6028363174 -0.1626796894 0.8476775316
C 0.7748990267 -0.0721249446 0.1557213828
C 0.9970983271 1.2566490786 -0.5686014182
C 1.0066523221 -1.2449787798 -0.8027536487
O 1.7759397600 -0.0912790596 1.1799554088
H -3.2948857535 0.5577339818 -1.2610586898
H -1.6351647036 0.9255589536 -1.7036564819
H -2.3448348481 1.6629523386 -0.2677623109
H -2.6529583205 -0.6762865070 0.6766610433
H -1.6788770324 -1.2934087060 -0.6486889703
H -0.7490884450 0.7559096606 1.4211346230
H -0.5355937191 -0.9827803878 1.5697559224
H 0.7435169289 2.0856557259 0.0861577853
H 0.4054521828 1.3171817866 -1.4736480086
H 2.0499310051 1.3383944544 -0.8281641617
H 0.7805498022 -2.1906556992 -0.3143704898
H 2.0489724194 -1.2520929038 -1.1135693835
H 0.3842012763 -1.1470983867 -1.6862164683
H 1.7463375817 -0.9414145461 1.6386338092
21
CONF11
C -2.3165955621 -0.0506064721 -1.0224235099
C -1.7658160048 0.6443679157 0.2179588136
C -0.5843768400 -0.0616823572 0.8848266610
C 0.7681156611 -0.1046585151 0.1432732446
C 1.0707116130 1.2024782076 -0.5961551710
C 0.8639243021 -1.2933245319 -0.8190096973
O 1.7236521527 -0.2831468362 1.1955587206
H -2.4919526973 -1.1050371466 -0.8228129999
H -1.6347837728 0.0359674291 -1.8639342039
H -3.2612320570 0.4047062595 -1.3117091314
H -1.4964230501 1.6718198673 -0.0276741537
H -2.5626409405 0.6902080366 0.9643469606
H -0.3819968019 0.4437938206 1.8328344111
H -0.8674951199 -1.0885059279 1.1256187004
H 2.0803372233 1.1726738547 -1.0016829260
H 1.0001243796 2.0426370876 0.0904320425
H 0.3772410022 1.3497860894 -1.4172832828
H 1.8352780956 -1.3010725486 -1.3105955025
H 0.0936943772 -1.2412783520 -1.5793551814
H 0.7484406554 -2.2225998025 -0.2654803740
H 2.6053080226 -0.3693341970 0.8082903246
21
CONF15
C -2.5157470689 -0.0730198224 0.6464590646
C -1.6359463074 0.7633364227 -0.2791548389
C -0.5078181400 -0.0602298090 -0.9128704779
C 0.8058307736 -0.1221936586 -0.0983792595
C 1.5684793403 1.2031012309 -0.2076660235
C 1.6750872188 -1.2618531552 -0.6384256674
O 0.5637874235 -0.4325371537 1.2710054615
H -1.9148648471 -0.5905379520 1.3893970603
H -3.0581056881 -0.8211627135 0.0720924444
H -3.2407733498 0.5565874144 1.1575026951
H -2.2603424566 1.1750034772 -1.0748721635
H -1.2228458399 1.6107669519 0.2716238122
H -0.8699810590 -1.0786956174 -1.0641421023
H -0.2574735879 0.3513466861 -1.8915429243
H 1.8818793503 1.3713590234 -1.2336627729
H 2.4517760454 1.1703418574 0.4263521888
H 0.9467844685 2.0391419819 0.1051196739
H 1.1813681089 -2.2127673504 -0.4561435594
H 2.6325259208 -1.2707183040 -0.1244711991
H 1.8393784341 -1.1408449841 -1.7044403462
H 0.2117588902 0.3539208548 1.7078123149
21
CONF12
C -2.2584516871 0.6059481844 -0.9810200978
C -1.8532620902 -0.3892202002 0.1005097741
C -0.5944835039 -0.0161269892 0.8877567263
C 0.7686615417 -0.0447743637 0.1589167172
C 1.0414131352 1.2442347733 -0.6230750357
C 0.9093871946 -1.2628467146 -0.7540061667
O 1.7899689332 -0.2011890961 1.1522954576
H -2.2619694122 1.6196636090 -0.5877223399
H -3.2591716155 0.3743630785 -1.3389813979
H -1.5841356485 0.5653760145 -1.8315744026
H -2.6680939437 -0.4537978717 0.8262776539
H -1.7356427878 -1.3796113952 -0.3397200964
H -0.7345420994 0.9784691311 1.3203365785
H -0.5072107446 -0.7258192500 1.7158714274
H 2.0693917155 1.2347385913 -0.9795865836
H 0.9032577892 2.1151678312 0.0146565107
H 0.3798566353 1.3324188385 -1.4766823235
H 1.9361696109 -1.3221014507 -1.1060278147
H 0.2451779346 -1.1868231044 -1.6077832018
H 0.6881784389 -2.1693396778 -0.1970061913
H 1.7904168896 0.5758026322 1.7267467693
21
CONF13
C -2.3964713969 -0.2297756368 -0.9364873926
C -1.7413349953 0.7263881718 0.0542330046
C -0.5837066817 0.1288825519 0.8584898602
C 0.7753120888 -0.0853931149 0.1563274703
C 1.2273367132 1.1593395404 -0.6080994067
C 0.7868158447 -1.3082804843 -0.7667235656
O 1.7598440903 -0.2752826964 1.1807308194
H -1.7489393813 -0.4351547423 -1.7830259658
H -3.3163684091 0.2079210893 -1.3179181855
H -2.6420560159 -1.1723226891 -0.4527763179
H -1.4097141579 1.6247940864 -0.4661977900
H -2.5008906775 1.0349779238 0.7771506788
H -0.3800321557 0.8032724822 1.6956016887
H -0.9085362483 -0.8267281180 1.2801412301
H 2.2604023313 1.0254764443 -0.9186158664
H 1.1758720017 2.0309250027 0.0389644494
H 0.6114817598 1.3197008419 -1.4863958379
H 0.3467307193 -2.1712243326 -0.2718773655
H 1.8165149322 -1.5432307842 -1.0290590061
H 0.2378842808 -1.1127082086 -1.6807126414
H 1.5458384598 -1.0772726988 1.6756402132
21
CONF14
C -2.4331236255 -0.2925410710 -0.8806674032
C -1.7272487415 0.7454576008 -0.0147277487
C -0.5788384843 0.1969479044 0.8367085457
C 0.7807641824 -0.0761179777 0.1576287912
C 1.2847875107 1.1404844842 -0.6200608677
C 0.7635892820 -1.3124310705 -0.7474293676
O 1.7434643785 -0.2804432214 1.1993412524
H -3.3281674198 0.1419869699 -1.3203159825
H -2.7298808491 -1.1506625317 -0.2819650811
H -1.7981873312 -0.6405643019 -1.6888569332
H -1.3719348946 1.5654387643 -0.6384363656
H -2.4642399325 1.1625691076 0.6762182243
H -0.3715917261 0.9234307459 1.6279687463
H -0.9132645851 -0.7252648896 1.3208342608
H 0.6866592020 1.3075520755 -1.5092124306
H 2.3164961005 0.9669734284 -0.9146083109
H 1.2537113439 2.0239074485 0.0119656222
H 1.7890854802 -1.6043741747 -0.9651314463
H 0.2643703180 -1.0995477657 -1.6861270020
H 0.2588324005 -2.1437442186 -0.2605246913
H 1.4943955586 -1.0641377699 1.7069593224
21
CONF27
C -2.4205488317 -0.7371048009 -0.0972865605
C -1.7479530265 0.5750571167 0.2941626944
C -0.4428438438 0.8863583650 -0.4459986759
C 0.8006339571 0.0464380119 -0.0521945600
C 2.0593339573 0.8918916721 -0.2783557123
C 0.9034672552 -1.2326934924 -0.8913183193
O 0.7977695748 -0.2717525961 1.3361390059
H -2.5259720609 -0.8022040602 -1.1780522170
H -3.4127670106 -0.7884556437 0.3458988384
H -1.8603928243 -1.6019810689 0.2480184444
H -2.4425251251 1.3896799794 0.0751246747
H -1.5613259007 0.5932285048 1.3699329501
H -0.5995408689 0.7821205777 -1.5204849900
H -0.2076247437 1.9336851871 -0.2450998243
H 2.0604051061 1.7335537725 0.4094133648
H 2.0883469081 1.2603084558 -1.2990458650
H 2.9459944682 0.2936496434 -0.0857027446
H 1.7589399543 -1.8172393146 -0.5587415833
H 1.0428610953 -0.9792570014 -1.9382066022
H 0.0091769401 -1.8414494461 -0.7991979943
H 0.1450618928 -0.9654554398 1.4958698029
21
CONF25
C -2.2322024352 1.0815690880 0.3112832899
C -1.8314201869 -0.3663323386 0.0554574395
C -0.5558059640 -0.5478177112 -0.7736040267
C 0.7774863621 -0.1465412511 -0.0899283507
C 1.0996295989 1.3366842015 -0.2917405230
C 1.9135202111 -0.9802275874 -0.7012746591
O 0.7278074220 -0.3604247834 1.3165576488
H -3.2374709630 1.1195385110 0.7256560934
H -2.2193725329 1.6553444483 -0.6126587223
H -1.5587036698 1.5454400370 1.0265121765
H -1.7159709769 -0.8719698176 1.0155754432
H -2.6410905955 -0.8633494613 -0.4848825062
H -0.4937963867 -1.6065829128 -1.0389958253
H -0.6462365792 0.0173592394 -1.7020879819
H 0.3311965758 1.9614831476 0.1481326822
H 1.1809127350 1.5614947508 -1.3507359286
H 2.0441073358 1.5672893812 0.1952549576
H 1.7437532114 -2.0427398208 -0.5365030779
H 2.8618912529 -0.7055829452 -0.2450734321
H 1.9736240492 -0.8016389771 -1.7709213865
H 0.7005453890 -1.3113442497 1.4855121014
21
CONF24
C -2.2526882385 1.0918624930 0.2688833639
C -1.8277509914 -0.3604777809 0.0866974743
C -0.5588410210 -0.5664759627 -0.7472369773
C 0.7807777267 -0.1491519559 -0.0871336654
C 1.0872901839 1.3360425496 -0.2971181399
C 1.9138920471 -0.9751022590 -0.7143657877
O 0.7543151024 -0.3605317361 1.3204847131
H -3.2580302231 1.1335176117 0.6827039554
H -2.2506028505 1.6178704646 -0.6830834648
H -1.5878827894 1.6048924592 0.9579952157
H -1.6920894986 -0.8119596254 1.0709036838
H -2.6351244483 -0.8987584016 -0.4162717584
H -0.4989895109 -1.6327583594 -0.9814779149
H -0.6559171543 -0.0292439589 -1.6914560236
H 1.1332295349 1.5628602490 -1.3576753606
H 2.0451606322 1.5721970468 0.1600445221
H 0.3296180127 1.9553160372 0.1683986285
H 1.7543776598 -2.0387901555 -0.5471650915
H 2.8664623180 -0.6934679788 -0.2715306701
H 1.9577642884 -0.7963074048 -1.7847193760
H 0.7345927291 -1.3113340716 1.4913440488
21
CONF23
C -2.1784793178 1.0412625493 0.4259229954
C -1.8391158436 -0.3723854938 -0.0296504287
C -0.5465056373 -0.4895593963 -0.8435514837
C 0.7691632233 -0.1384783767 -0.0982212205
C 1.1379869598 1.3376776662 -0.2745212288
C 1.9070360265 -0.9993704535 -0.6662397516
O 0.6559404827 -0.3591031019 1.3035664440
H -2.1624260008 1.7319520004 -0.4143062282
H -1.4693148301 1.3769973070 1.1776557230
H -3.1727209951 1.0603452824 0.8672640813
H -1.7774258463 -1.0163821482 0.8492036168
H -2.6523669531 -0.7476721757 -0.6561036106
H -0.4788016880 -1.5226600722 -1.1940519845
H -0.6189291959 0.1505470464 -1.7237019711
H 2.0411462749 1.5510861325 0.2921036671
H 0.3462212562 1.9800388491 0.0936321805
H 1.3160434605 1.5550550346 -1.3232182835
H 2.8429806145 -0.7497486145 -0.1716549317
H 2.0143485231 -0.8206165983 -1.7321593677
H 1.7034442732 -2.0573726138 -0.5109847484
H 0.5920296738 -1.3094029308 1.4650750309
21
CONF21
C -2.3982737929 -0.7488955386 -0.1093396140
C -1.7412778719 0.5571648517 0.3212271420
C -0.4421510127 0.9025907650 -0.4126903519
C 0.7965472109 0.0501991801 -0.0540268132
C 2.0598722868 0.8880077921 -0.3091114513
C 0.8794630537 -1.2265613743 -0.9015194197
O 0.7093179521 -0.2760301922 1.3288075564
H -2.4639683172 -0.8085136570 -1.1936359162
H -3.4046205329 -0.8084020779 0.2997172886
H -1.8395319523 -1.6044066424 0.2588893739
H -2.4417831206 1.3755512569 0.1378088485
H -1.5385506886 0.5240119921 1.3922020283
H -0.6028885803 0.8415289066 -1.4899013214
H -0.2070141873 1.9406648519 -0.1683541742
H 2.9553237446 0.2913295079 -0.1467932602
H 2.0824699483 1.7393742115 0.3674016096
H 2.0663678249 1.2515686854 -1.3325164465
H 0.8883669304 -0.9721534332 -1.9572762006
H 0.0342969336 -1.8774528971 -0.7051030558
H 1.7939867379 -1.7703053976 -0.6709078504
H 1.4973526722 -0.7760329461 1.5786670569
21
CONF22
C -2.2890572540 1.0948441700 0.1884637853
C -1.8100100903 -0.3521413765 0.1594140279
C -0.5587588153 -0.6084231837 -0.6864400916
C 0.7872047434 -0.1485730581 -0.0832838351
C 1.0621841861 1.3381305845 -0.3441538825
C 1.9153350880 -0.9738133902 -0.7233555727
O 0.7387162957 -0.4069695682 1.3159230284
H -2.3231449633 1.5094897859 -0.8166256353
H -1.6390066677 1.7121246858 0.8013651030
H -3.2890354982 1.1431408357 0.6140949094
H -1.6180828745 -0.6934219585 1.1773071596
H -2.6099026478 -0.9707954528 -0.2549330174
H -0.4925572879 -1.6883804929 -0.8351964483
H -0.6756993188 -0.1429525332 -1.6660317288
H 2.0563925569 1.6027464056 0.0117692246
H 0.3377336873 1.9611003867 0.1692017443
H 1.0118887849 1.5454816716 -1.4088641990
H 2.8875579459 -0.6251711066 -0.3808991802
H 1.8760348283 -0.8842085602 -1.8049897886
H 1.8074562146 -2.0217472266 -0.4526735332
H 1.5869564954 -0.1583562404 1.7059563249
21
CONF19
C -2.2063275341 1.0485258913 0.3783060392
C -1.8223988144 -0.3829154915 0.0248602746
C -0.5451076677 -0.5176883905 -0.8087411056
C 0.7743444181 -0.1356540214 -0.0971819943
C 1.1255619665 1.3425199145 -0.3177693100
C 1.9133014532 -0.9982399660 -0.6637263441
O 0.6149014115 -0.4064220035 1.2909545062
H -1.5134001838 1.4607854260 1.1062085782
H -3.2020835964 1.0675879429 0.8159101925
H -2.2087649220 1.6779160577 -0.5091776856
H -1.7029188891 -0.9583889392 0.9435505199
H -2.6344269163 -0.8334191662 -0.5513332502
H -0.4717798444 -1.5644499611 -1.1108292533
H -0.6357134658 0.0849134072 -1.7135190348
H 2.0632902710 1.5834558107 0.1800425870
H 0.3492098491 1.9884826412 0.0784461147
H 1.2398173475 1.5414378842 -1.3794311397
H 1.9551125487 -0.8989378280 -1.7444850688
H 1.7460202570 -2.0431622305 -0.4119573039
H 2.8709166610 -0.6893243316 -0.2492171894
H 1.4480519529 -0.2142863956 1.7408098254
