  27
 
 C          0.9640000000        0.6830000000       -2.5250000000
 C          0.6130000000       -0.0970000000       -1.2620000000
 H          1.2440000000       -0.9940000000       -1.2210000000
 C         -0.8620000000       -0.5070000000       -1.2700000000
 C         -1.2620000000       -1.2250000000        0.0200000000
 C         -0.9860000000       -0.3460000000        1.2460000000
 H         -1.6030000000        0.5590000000        1.1640000000
 C          0.4850000000        0.0700000000        1.3060000000
 C          0.9080000000        0.7080000000       -0.0010000000
 O          1.5300000000        1.7690000000       -0.0160000000
 C         -1.3900000000       -1.0550000000        2.5020000000
 C         -0.8450000000       -2.2260000000        2.8630000000
 C         -2.4410000000       -0.3800000000        3.3340000000
 H          0.3530000000        1.5870000000       -2.6010000000
 H          2.0180000000        0.9780000000       -2.5140000000
 H          0.7870000000        0.0720000000       -3.4150000000
 H         -1.4980000000        0.3790000000       -1.3960000000
 H         -1.0610000000       -1.1650000000       -2.1250000000
 H         -2.3270000000       -1.4800000000       -0.0310000000
 H         -0.7110000000       -2.1710000000        0.0960000000
 H          0.6450000000        0.7920000000        2.1160000000
 H          1.1420000000       -0.7890000000        1.4890000000
 H         -1.1460000000       -2.7310000000        3.7750000000
 H         -0.0850000000       -2.7070000000        2.2550000000
 H         -3.4390000000       -0.7100000000        3.0260000000
 H         -2.3040000000       -0.6280000000        4.3910000000
 H         -2.4060000000        0.7100000000        3.2390000000
