 xtb: 6.7.1 (edcfbbe)
          04112512213D

 14 13  0     0  0            999 V2000
   -2.1425   -0.1186    0.7401 C   0  0  0  0  0  0  0  0  0  0  0  0
   -1.5524   -0.1338   -0.6652 C   0  0  0  0  0  0  0  0  0  0  0  0
   -0.2462    0.6544   -0.7390 C   0  0  0  0  0  0  0  0  0  0  0  0
    0.8868   -0.0251   -0.0185 C   0  0  0  0  0  0  0  0  0  0  0  0
    0.9555   -1.2086    0.2344 O   0  0  0  0  0  0  0  0  0  0  0  0
    1.8523    0.8256    0.3042 O   0  0  0  0  0  0  0  0  0  0  0  0
   -1.4538   -0.5835    1.4423 H   0  0  0  0  0  0  0  0  0  0  0  0
   -3.0780   -0.6708    0.7639 H   0  0  0  0  0  0  0  0  0  0  0  0
   -2.3345    0.9015    1.0648 H   0  0  0  0  0  0  0  0  0  0  0  0
   -1.3575   -1.1652   -0.9643 H   0  0  0  0  0  0  0  0  0  0  0  0
   -2.2665    0.2993   -1.3661 H   0  0  0  0  0  0  0  0  0  0  0  0
    0.0712    0.7592   -1.7795 H   0  0  0  0  0  0  0  0  0  0  0  0
   -0.3607    1.6568   -0.3253 H   0  0  0  0  0  0  0  0  0  0  0  0
    2.6055    0.3906    0.7485 H   0  0  0  0  0  0  0  0  0  0  0  0
  1  2  1  0  0  0  0
  2  3  1  0  0  0  0
  3  4  1  0  0  0  0
  4  5  2  0  0  0  0
  4  6  1  0  0  0  0
  1  7  1  0  0  0  0
  1  8  1  0  0  0  0
  1  9  1  0  0  0  0
  2 10  1  0  0  0  0
  2 11  1  0  0  0  0
  3 12  1  0  0  0  0
  3 13  1  0  0  0  0
  6 14  1  0  0  0  0
M  END
