 xtb: 6.7.1 (edcfbbe)
          04112511443D

 25 25  0     0  0            999 V2000
    1.4256   -0.8695    1.5270 C   0  0  0  0  0  0  0  0  0  0  0  0
    2.1453   -0.1651    0.4127 C   0  0  0  0  0  0  0  0  0  0  0  0
    3.4538   -0.3148    0.2610 C   0  0  0  0  0  0  0  0  0  0  0  0
    1.3741    0.7132   -0.5484 C   0  0  0  0  0  0  0  0  0  0  0  0
    2.1147    1.3501   -1.0434 H   0  0  0  0  0  0  0  0  0  0  0  0
    0.6713   -0.0908   -1.6539 C   0  0  0  0  0  0  0  0  0  0  0  0
   -0.4911   -0.9312   -1.1344 C   0  0  0  0  0  0  0  0  0  0  0  0
   -1.3876   -0.1255   -0.2405 C   0  0  0  0  0  0  0  0  0  0  0  0
   -0.9777    1.0163    0.3383 C   0  0  0  0  0  0  0  0  0  0  0  0
    0.3593    1.6284    0.1494 C   0  0  0  0  0  0  0  0  0  0  0  0
   -2.7281   -0.6202    0.0128 C   0  0  0  0  0  0  0  0  0  0  0  0
   -3.5608   -0.0955    0.7328 O   0  0  0  0  0  0  0  0  0  0  0  0
    2.0452   -0.8859    2.4209 H   0  0  0  0  0  0  0  0  0  0  0  0
    0.4783   -0.3967    1.7659 H   0  0  0  0  0  0  0  0  0  0  0  0
    1.2264   -1.9049    1.2523 H   0  0  0  0  0  0  0  0  0  0  0  0
    3.9992    0.1701   -0.5308 H   0  0  0  0  0  0  0  0  0  0  0  0
    4.0330   -0.9384    0.9211 H   0  0  0  0  0  0  0  0  0  0  0  0
    0.2882    0.6179   -2.3908 H   0  0  0  0  0  0  0  0  0  0  0  0
    1.3980   -0.7352   -2.1501 H   0  0  0  0  0  0  0  0  0  0  0  0
   -1.0694   -1.3176   -1.9767 H   0  0  0  0  0  0  0  0  0  0  0  0
   -0.1166   -1.7942   -0.5798 H   0  0  0  0  0  0  0  0  0  0  0  0
   -1.6779    1.5489    0.9699 H   0  0  0  0  0  0  0  0  0  0  0  0
    0.2157    2.5314   -0.4530 H   0  0  0  0  0  0  0  0  0  0  0  0
    0.7500    1.9646    1.1127 H   0  0  0  0  0  0  0  0  0  0  0  0
   -2.9784   -1.5617   -0.5115 H   0  0  0  0  0  0  0  0  0  0  0  0
  1  2  1  0  0  0  0
  2  3  2  0  0  0  0
  2  4  1  0  0  0  0
  4  5  1  0  0  0  0
  4  6  1  0  0  0  0
  6  7  1  0  0  0  0
  7  8  1  0  0  0  0
  8  9  2  0  0  0  0
  4 10  1  0  0  0  0
  9 10  1  0  0  0  0
  8 11  1  0  0  0  0
 11 12  2  0  0  0  0
  1 13  1  0  0  0  0
  1 14  1  0  0  0  0
  1 15  1  0  0  0  0
  3 16  1  0  0  0  0
  3 17  1  0  0  0  0
  6 18  1  0  0  0  0
  6 19  1  0  0  0  0
  7 20  1  0  0  0  0
  7 21  1  0  0  0  0
  9 22  1  0  0  0  0
 10 23  1  0  0  0  0
 10 24  1  0  0  0  0
 11 25  1  0  0  0  0
M  END
