  15
 
 C          1.9173634487       -1.4728792682        0.0002385621
 C          2.5975843665       -0.2666271053        0.0002135420
 C          1.9081993185        0.9321509997        0.0001175513
 C          0.5172825196        0.9421366355        0.0000538238
 C         -0.1552885060       -0.2805309644        0.0000828203
 C          0.5331220920       -1.4800233875        0.0001629964
 N         -1.6122462696       -0.2754355987        0.0000249799
 O         -2.1579642117       -0.2838916869       -1.0757956081
 O         -2.1580361588       -0.2830708798        1.0758186380
 O         -0.2196007672        2.0741052842       -0.0000390088
 H          2.4599257935       -2.4043798153        0.0003039001
 H          3.6766382588       -0.2561384814        0.0002508444
 H          2.4440641666        1.8711167834        0.0000920002
 H         -0.0168914570       -2.4083066637        0.0001814427
 H          0.3492589121        2.8531720582       -0.0000489354
          15
        -30.42104863
 C          1.9046659942       -1.4541427624       -0.0000349255
 C          2.5836562963       -0.2362230051        0.0002331062
 C          1.8936886513        0.9529825727        0.0001896898
 C          0.4924442101        0.9782225441       -0.0001373820
 C         -0.1853798582       -0.2592026624       -0.0002221342
 C          0.5321642180       -1.4610873087       -0.0002919737
 N         -1.6046646421       -0.3314104310       -0.0000049039
 O         -2.2368439812        0.7251017699        0.0001860362
 O         -2.1352372991       -1.4194752345        0.0001673322
 O         -0.1106913867        2.1619880486       -0.0001543237
 H          2.4527513528       -2.3823371135       -0.0000413355
 H          3.6628136612       -0.2247020346        0.0005085219
 H          2.4055978717        1.9018321058        0.0004453476
 H         -0.0278631990       -2.3837640043       -0.0003511619
 H         -1.0883771002        2.0280474701       -0.0005113452
