 xtb: 6.7.1 (edcfbbe)
          04112512373D

 21 21  0     0  0            999 V2000
   -3.7789    0.1393    0.0207 C   0  0  0  0  0  0  0  0  0  0  0  0
   -2.2978    0.4014    0.2633 C   0  0  0  0  0  0  0  0  0  0  0  0
   -1.4128   -0.5640   -0.5350 C   0  0  0  0  0  0  0  0  0  0  0  0
    0.0395   -0.2884   -0.2738 C   0  0  0  0  0  0  0  0  0  0  0  0
    0.7025   -0.9158    0.7736 C   0  0  0  0  0  0  0  0  0  0  0  0
    2.0301   -0.6327    1.0417 C   0  0  0  0  0  0  0  0  0  0  0  0
    2.7145    0.2869    0.2650 C   0  0  0  0  0  0  0  0  0  0  0  0
    2.0631    0.9201   -0.7799 C   0  0  0  0  0  0  0  0  0  0  0  0
    0.7355    0.6343   -1.0451 C   0  0  0  0  0  0  0  0  0  0  0  0
   -4.0198    0.2600   -1.0331 H   0  0  0  0  0  0  0  0  0  0  0  0
   -4.0403   -0.8739    0.3178 H   0  0  0  0  0  0  0  0  0  0  0  0
   -4.3872    0.8339    0.5946 H   0  0  0  0  0  0  0  0  0  0  0  0
   -2.0741    0.2929    1.3269 H   0  0  0  0  0  0  0  0  0  0  0  0
   -2.0538    1.4271   -0.0219 H   0  0  0  0  0  0  0  0  0  0  0  0
   -1.6282   -0.4472   -1.5989 H   0  0  0  0  0  0  0  0  0  0  0  0
   -1.6543   -1.5891   -0.2469 H   0  0  0  0  0  0  0  0  0  0  0  0
    0.1735   -1.6354    1.3822 H   0  0  0  0  0  0  0  0  0  0  0  0
    2.5326   -1.1310    1.8577 H   0  0  0  0  0  0  0  0  0  0  0  0
    3.7509    0.5079    0.4722 H   0  0  0  0  0  0  0  0  0  0  0  0
    2.5915    1.6377   -1.3904 H   0  0  0  0  0  0  0  0  0  0  0  0
    0.2324    1.1303   -1.8629 H   0  0  0  0  0  0  0  0  0  0  0  0
  1  2  1  0  0  0  0
  2  3  1  0  0  0  0
  3  4  1  0  0  0  0
  4  5  4  0  0  0  0
  5  6  4  0  0  0  0
  6  7  4  0  0  0  0
  7  8  4  0  0  0  0
  4  9  4  0  0  0  0
  8  9  4  0  0  0  0
  1 10  1  0  0  0  0
  1 11  1  0  0  0  0
  1 12  1  0  0  0  0
  2 13  1  0  0  0  0
  2 14  1  0  0  0  0
  3 15  1  0  0  0  0
  3 16  1  0  0  0  0
  5 17  1  0  0  0  0
  6 18  1  0  0  0  0
  7 19  1  0  0  0  0
  8 20  1  0  0  0  0
  9 21  1  0  0  0  0
M  END
