16
 xtb: 6.7.1 (edcfbbe)
C           -2.02653505206615       -0.04260198407474        0.77233511255844
C           -1.43152041171168       -0.67007969753993       -0.48463160601199
C           -0.25857858019420        0.14908280793018       -1.04754832623852
C            0.90529972948813        0.25849010832157       -0.09759138306460
O            1.36596686599599        1.35095426491666        0.22707258931048
C            1.47824171649319       -1.01738708261156        0.44572192357227
H           -2.88008903928355       -0.62392530156633        1.13432748004586
H           -2.37292927769293        0.97726238585648        0.57276082464820
H           -1.29145891237898        0.00758373335032        1.58388204257570
H           -2.19790364333552       -0.73729683665243       -1.26393230706150
H           -1.10408062190580       -1.69508993422340       -0.27841704405512
H            0.11817918363970       -0.34041378313864       -1.95615184788051
H           -0.58743378249694        1.15887624325650       -1.31212333815540
H            0.82451892143197       -1.37703738660097        1.25057236532657
H            2.47387873324895       -0.84518160888789        0.85813090276408
H            1.50319748849118       -1.79903697719837       -0.31871058795458
