  14
 
 C         -2.1460000000       -0.1940000000       -0.1210000000
 C         -0.8940000000        0.4510000000        0.4420000000
 O         -0.8120000000        1.7920000000       -0.0250000000
 N          0.3340000000        2.4890000000        0.4490000000
 O          1.1090000000        1.8780000000        1.1880000000
 O          0.3920000000        3.6480000000        0.0380000000
 O         -3.2830000000        0.5410000000        0.3170000000
 N         -4.5160000000        0.0160000000       -0.1580000000
 O         -4.4710000000       -0.9870000000       -0.8750000000
 O         -5.4910000000        0.6610000000        0.2280000000
 H         -2.2510000000       -1.2250000000        0.2300000000
 H         -2.1270000000       -0.1760000000       -1.2140000000
 H          0.0050000000       -0.0800000000        0.1120000000
 H         -0.9310000000        0.4690000000        1.5350000000
