21
 xtb: 6.7.1 (edcfbbe)
C            1.71443627830189       -0.63407861872932        1.05684809216662
C            1.16369618189451        0.47257327636824        0.17114338907200
H            0.85018046219282        1.31771026179343        0.79400594268860
C            0.00323119828397        0.01811976788938       -0.71171644592909
C           -1.22358365921691       -0.53966062647444        0.02420935747171
C           -1.78774114876955        0.46058775262016        1.03466707248357
C           -2.29708548057966       -0.93489433902078       -0.99158435678613
O            2.21738454397764        1.02216860582679       -0.66191898363292
H            2.01669273102588       -1.49602583668226        0.44912404270736
H            2.58480550310546       -0.27756509951659        1.61576749561266
H            0.96334823896804       -0.97131618544076        1.77788692024615
H           -0.31411772082760        0.87270344863401       -1.32528524258337
H            0.38542791254459       -0.74948360889416       -1.40059522477459
H           -0.92160433656936       -1.44630617847336        0.56600203178378
H           -1.07820005482109        0.67730986155431        1.83971458296585
H           -2.70215062250361        0.07110198811277        1.49486684475064
H           -2.03721744682960        1.40743556419498        0.53930288638738
H           -2.64049049432161       -0.05535620897208       -1.55023048853318
H           -1.91324621810814       -1.66360533902056       -1.71432552241113
H           -3.16677885655581       -1.37662667890498       -0.49352329894178
H            2.52337003106445        0.30527865056124       -1.23436087707237
