 xtb: 6.7.1 (edcfbbe)
          04112512443D

 19 18  0     0  0            999 V2000
    2.4399    0.9455   -0.1478 C   0  0  0  0  0  0  0  0  0  0  0  0
    1.1730    0.2295    0.3140 C   0  0  0  0  0  0  0  0  0  0  0  0
    1.3995   -1.2796    0.3601 C   0  0  0  0  0  0  0  0  0  0  0  0
    0.0101    0.5645   -0.6352 C   0  0  0  0  0  0  0  0  0  0  0  0
   -1.3064   -0.0195   -0.1905 C   0  0  0  0  0  0  0  0  0  0  0  0
   -1.9310   -0.7990   -0.8857 O   0  0  0  0  0  0  0  0  0  0  0  0
   -1.8026    0.4169    1.1576 C   0  0  0  0  0  0  0  0  0  0  0  0
    2.2953    2.0229   -0.1507 H   0  0  0  0  0  0  0  0  0  0  0  0
    3.2672    0.7112    0.5173 H   0  0  0  0  0  0  0  0  0  0  0  0
    2.7095    0.6311   -1.1534 H   0  0  0  0  0  0  0  0  0  0  0  0
    0.9234    0.5824    1.3185 H   0  0  0  0  0  0  0  0  0  0  0  0
    2.1922   -1.5249    1.0626 H   0  0  0  0  0  0  0  0  0  0  0  0
    1.6846   -1.6487   -0.6228 H   0  0  0  0  0  0  0  0  0  0  0  0
    0.4937   -1.8011    0.6637 H   0  0  0  0  0  0  0  0  0  0  0  0
    0.2352    0.1887   -1.6355 H   0  0  0  0  0  0  0  0  0  0  0  0
   -0.1060    1.6487   -0.6883 H   0  0  0  0  0  0  0  0  0  0  0  0
   -2.8685    0.2226    1.2405 H   0  0  0  0  0  0  0  0  0  0  0  0
   -1.2897   -0.1665    1.9203 H   0  0  0  0  0  0  0  0  0  0  0  0
   -1.5909    1.4670    1.3296 H   0  0  0  0  0  0  0  0  0  0  0  0
  1  2  1  0  0  0  0
  2  3  1  0  0  0  0
  2  4  1  0  0  0  0
  4  5  1  0  0  0  0
  5  6  2  0  0  0  0
  5  7  1  0  0  0  0
  1  8  1  0  0  0  0
  1  9  1  0  0  0  0
  1 10  1  0  0  0  0
  2 11  1  0  0  0  0
  3 12  1  0  0  0  0
  3 13  1  0  0  0  0
  3 14  1  0  0  0  0
  4 15  1  0  0  0  0
  4 16  1  0  0  0  0
  7 17  1  0  0  0  0
  7 18  1  0  0  0  0
  7 19  1  0  0  0  0
M  END
