14
 xtb: 6.7.1 (edcfbbe)
C           -1.06346221956062       -0.52809153051424       -0.24176276241894
C           -0.00322189590761        0.19673316356986        0.56655148054072
C            1.31648957035107       -0.56267681326502        0.59830451583636
O            1.84560522465660       -0.80488657579008       -0.71309547251311
O            0.17458514649821        1.49922060546829       -0.02567224404914
O           -2.34882324559325        0.10455794677617       -0.15725977842620
H           -1.11909929451196       -1.57047697754518        0.10060453349919
H           -0.79344056941906       -0.52637844559372       -1.30176248022565
H           -0.35604238451582        0.29989778448232        1.60543768726664
H            1.16913448693097       -1.54152493382014        1.06568119924400
H            2.03857305198171        0.00236921110339        1.20618051369924
H            1.92985235418212        0.05729642379604       -1.14308906537387
H            0.73874337861678        2.01327892013011        0.56709479971295
H           -2.63625651442090        0.05012155467679        0.76364232504981
