27
 xtb: 6.7.1 (edcfbbe)
C           -2.67467494172710       -2.02109552801075        1.49154315395243
C           -3.42030862929723       -0.88806893016093        0.79419227510951
C           -2.80144148925494       -0.35459178745448       -0.50357445344849
H           -3.40957987049394        0.49798279493964       -0.81169390966677
C           -2.82644074049501       -1.34107222729597       -1.66704911686311
N           -1.45827530550618        0.27163926196603       -0.25157288639331
C           -0.26888044395260       -0.48308653627630       -0.31081859862491
O           -0.29153231707512       -1.69309839726094       -0.51905633810198
C            0.95280053364004        0.27578969207463       -0.12082337641049
C            0.94835850269122        1.59992432441524        0.18509216551282
N           -0.27086490345853        2.21182671952948        0.30053082099189
C           -1.49336763258343        1.61168923474897        0.11111310410191
O           -2.53415431252797        2.25452360350042        0.25508449745500
C            2.12206623917484        2.48163965535317        0.41106952385614
Br           2.57173908827195       -0.69999396810109       -0.29402201407305
H           -1.68214648460574       -1.70415422680778        1.82630836871994
H           -3.23455315394413       -2.33890844447100        2.37690757408610
H           -2.55339074718153       -2.89433374691636        0.84407407820642
H           -4.43402541843909       -1.21746203460901        0.53440158571328
H           -3.53372160289342       -0.04739692928358        1.48874102558406
H           -2.23264715008551       -0.97695979485972       -2.51026671905481
H           -2.48057749034317       -2.33902590802464       -1.40273214461059
H           -3.86654789241506       -1.41479424244132       -2.00036056076642
H           -0.30308344668305        3.19246054039628        0.55308992186700
H            2.16409920391057        3.24014313577075       -0.37887529351969
H            3.05403031631490        1.92123231553407        0.41195878866508
H            2.01430638971995        3.00484600923672        1.36674399699856
