 xtb: 6.7.1 (edcfbbe)
          04112510523D

 12 11  0     0  0            999 V2000
    0.2517   -0.5033   -0.8217 C   0  0  0  0  0  0  0  0  0  0  0  0
    0.5272   -0.6351   -1.8744 H   0  0  0  0  0  0  0  0  0  0  0  0
    1.2562    0.4520   -0.1483 C   0  0  0  0  0  0  0  0  0  0  0  0
    2.5119    0.0566   -0.3676 F   0  0  0  0  0  0  0  0  0  0  0  0
    1.0956    0.5305    1.1756 F   0  0  0  0  0  0  0  0  0  0  0  0
    1.1437    1.6908   -0.6348 F   0  0  0  0  0  0  0  0  0  0  0  0
   -1.0453   -0.0266   -0.8263 O   0  0  0  0  0  0  0  0  0  0  0  0
   -1.6742    0.2133    0.3647 C   0  0  0  0  0  0  0  0  0  0  0  0
   -2.9914    0.1043    0.1473 F   0  0  0  0  0  0  0  0  0  0  0  0
   -1.4702    1.4928    0.7664 F   0  0  0  0  0  0  0  0  0  0  0  0
    0.3972   -2.0883    0.0150 Cl  0  0  0  0  0  0  0  0  0  0  0  0
   -1.3842   -0.4577    1.1887 H   0  0  0  0  0  0  0  0  0  0  0  0
  1  2  1  0  0  0  0
  1  3  1  0  0  0  0
  3  4  1  0  0  0  0
  3  5  1  0  0  0  0
  3  6  1  0  0  0  0
  1  7  1  0  0  0  0
  7  8  1  0  0  0  0
  8  9  1  0  0  0  0
  8 10  1  0  0  0  0
  1 11  1  0  0  0  0
  8 12  1  0  0  0  0
M  END
