 17

C      1.962000    -1.030000    -1.605000
C      1.885000    -1.036000    -0.112000
C      2.921000    -1.631000     0.608000
C      2.878000    -1.652000     2.002000
C      1.800000    -1.079000     2.676000
C      0.764000    -0.484000     1.955000
C      0.807000    -0.463000     0.561000
N     -0.261000     0.148000    -0.153000
O     -1.245000    -0.552000    -0.488000
O     -0.185000     1.369000    -0.427000
H      2.478000    -0.129000    -1.950000
H      2.502000    -1.909000    -1.972000
H      0.961000    -1.057000    -2.048000
H      3.766000    -2.080000     0.093000
H      3.686000    -2.113000     2.563000
H      1.767000    -1.095000     3.761000
H     -0.072000    -0.043000     2.494000
