 xtb: 6.7.1 (edcfbbe)
          04112511193D

 14 13  0     0  0            999 V2000
   -1.0727   -0.6071   -0.0784 C   0  0  0  0  0  0  0  0  0  0  0  0
    0.0204    0.2284    0.6034 C   0  0  0  0  0  0  0  0  0  0  0  0
    1.3559   -0.5263    0.6345 C   0  0  0  0  0  0  0  0  0  0  0  0
    1.8250   -0.8176   -0.6580 O   0  0  0  0  0  0  0  0  0  0  0  0
    0.2239    1.4371   -0.1020 O   0  0  0  0  0  0  0  0  0  0  0  0
   -2.2512    0.1459   -0.2592 O   0  0  0  0  0  0  0  0  0  0  0  0
   -1.2580   -1.5180    0.4988 H   0  0  0  0  0  0  0  0  0  0  0  0
   -0.7344   -0.8880   -1.0785 H   0  0  0  0  0  0  0  0  0  0  0  0
   -0.2776    0.4578    1.6394 H   0  0  0  0  0  0  0  0  0  0  0  0
    1.2322   -1.4829    1.1441 H   0  0  0  0  0  0  0  0  0  0  0  0
    2.0894    0.0814    1.1796 H   0  0  0  0  0  0  0  0  0  0  0  0
    1.8769    0.0201   -1.1436 H   0  0  0  0  0  0  0  0  0  0  0  0
   -0.6316    1.7139   -0.4680 H   0  0  0  0  0  0  0  0  0  0  0  0
   -2.7036    0.2501    0.5895 H   0  0  0  0  0  0  0  0  0  0  0  0
  1  2  1  0  0  0  0
  2  3  1  0  0  0  0
  3  4  1  0  0  0  0
  2  5  1  0  0  0  0
  1  6  1  0  0  0  0
  1  7  1  0  0  0  0
  1  8  1  0  0  0  0
  2  9  1  0  0  0  0
  3 10  1  0  0  0  0
  3 11  1  0  0  0  0
  4 12  1  0  0  0  0
  5 13  1  0  0  0  0
  6 14  1  0  0  0  0
M  END
