 xtb: 6.7.1 (edcfbbe)
          04112512103D

 18 17  0     0  0            999 V2000
    1.7854   -1.3844    0.1244 C   0  0  0  0  0  0  0  0  0  0  0  0
    0.8134   -0.2145    0.2652 C   0  0  0  0  0  0  0  0  0  0  0  0
    1.5755    1.1053    0.1654 C   0  0  0  0  0  0  0  0  0  0  0  0
   -0.2842   -0.3169   -0.8009 C   0  0  0  0  0  0  0  0  0  0  0  0
   -1.4866    0.5814   -0.5216 C   0  0  0  0  0  0  0  0  0  0  0  0
   -2.1205    0.1481    0.6678 O   0  0  0  0  0  0  0  0  0  0  0  0
    2.2554   -1.3676   -0.8567 H   0  0  0  0  0  0  0  0  0  0  0  0
    1.2663   -2.3326    0.2420 H   0  0  0  0  0  0  0  0  0  0  0  0
    2.5645   -1.3242    0.8803 H   0  0  0  0  0  0  0  0  0  0  0  0
    0.3304   -0.2745    1.2462 H   0  0  0  0  0  0  0  0  0  0  0  0
    2.3500    1.1493    0.9273 H   0  0  0  0  0  0  0  0  0  0  0  0
    0.9139    1.9553    0.3085 H   0  0  0  0  0  0  0  0  0  0  0  0
    2.0478    1.1946   -0.8109 H   0  0  0  0  0  0  0  0  0  0  0  0
   -0.6463   -1.3462   -0.8358 H   0  0  0  0  0  0  0  0  0  0  0  0
    0.1240   -0.0611   -1.7799 H   0  0  0  0  0  0  0  0  0  0  0  0
   -1.1665    1.6260   -0.4213 H   0  0  0  0  0  0  0  0  0  0  0  0
   -2.1872    0.5143   -1.3657 H   0  0  0  0  0  0  0  0  0  0  0  0
   -2.8768    0.7187    0.8547 H   0  0  0  0  0  0  0  0  0  0  0  0
  1  2  1  0  0  0  0
  2  3  1  0  0  0  0
  2  4  1  0  0  0  0
  4  5  1  0  0  0  0
  5  6  1  0  0  0  0
  1  7  1  0  0  0  0
  1  8  1  0  0  0  0
  1  9  1  0  0  0  0
  2 10  1  0  0  0  0
  3 11  1  0  0  0  0
  3 12  1  0  0  0  0
  3 13  1  0  0  0  0
  4 14  1  0  0  0  0
  4 15  1  0  0  0  0
  5 16  1  0  0  0  0
  5 17  1  0  0  0  0
  6 18  1  0  0  0  0
M  END
