 xtb: 6.7.1 (edcfbbe)
          04112512393D

 17 16  0     0  0            999 V2000
   -2.1702    1.0880    0.5483 C   0  0  0  0  0  0  0  0  0  0  0  0
   -2.0856   -0.2942   -0.0877 C   0  0  0  0  0  0  0  0  0  0  0  0
   -0.8285   -0.4418   -0.9508 C   0  0  0  0  0  0  0  0  0  0  0  0
    0.4149   -0.4097   -0.1011 C   0  0  0  0  0  0  0  0  0  0  0  0
    0.6149   -1.1042    0.8732 O   0  0  0  0  0  0  0  0  0  0  0  0
    1.2934    0.4825   -0.5472 O   0  0  0  0  0  0  0  0  0  0  0  0
    2.5298    0.6067    0.1601 C   0  0  0  0  0  0  0  0  0  0  0  0
   -2.1708    1.8614   -0.2159 H   0  0  0  0  0  0  0  0  0  0  0  0
   -3.0801    1.1798    1.1353 H   0  0  0  0  0  0  0  0  0  0  0  0
   -1.3202    1.2555    1.2073 H   0  0  0  0  0  0  0  0  0  0  0  0
   -2.9629   -0.4651   -0.7118 H   0  0  0  0  0  0  0  0  0  0  0  0
   -2.0639   -1.0570    0.6929 H   0  0  0  0  0  0  0  0  0  0  0  0
   -0.7641    0.3541   -1.6917 H   0  0  0  0  0  0  0  0  0  0  0  0
   -0.8497   -1.4073   -1.4594 H   0  0  0  0  0  0  0  0  0  0  0  0
    3.0615   -0.3454    0.1511 H   0  0  0  0  0  0  0  0  0  0  0  0
    2.3404    0.8966    1.1943 H   0  0  0  0  0  0  0  0  0  0  0  0
    3.0916    1.3734   -0.3638 H   0  0  0  0  0  0  0  0  0  0  0  0
  1  2  1  0  0  0  0
  2  3  1  0  0  0  0
  3  4  1  0  0  0  0
  4  5  2  0  0  0  0
  4  6  1  0  0  0  0
  6  7  1  0  0  0  0
  1  8  1  0  0  0  0
  1  9  1  0  0  0  0
  1 10  1  0  0  0  0
  2 11  1  0  0  0  0
  2 12  1  0  0  0  0
  3 13  1  0  0  0  0
  3 14  1  0  0  0  0
  7 15  1  0  0  0  0
  7 16  1  0  0  0  0
  7 17  1  0  0  0  0
M  END
