 xtb: 6.7.1 (edcfbbe)
          04072510393D

 16 15  0     0  0            999 V2000
    1.7606    1.1325    0.3048 C   0  0  0  0  0  0  0  0  0  0  0  0
    1.1223    0.1102   -0.6358 C   0  0  0  0  0  0  0  0  0  0  0  0
    0.0000   -0.6705    0.0001 C   0  0  0  0  0  0  0  0  0  0  0  0
   -0.0003   -1.8882   -0.0003 O   0  0  0  0  0  0  0  0  0  0  0  0
   -1.1217    0.1105    0.6364 C   0  0  0  0  0  0  0  0  0  0  0  0
   -1.7606    1.1319   -0.3048 C   0  0  0  0  0  0  0  0  0  0  0  0
    2.1118    0.6449    1.2111 H   0  0  0  0  0  0  0  0  0  0  0  0
    2.6126    1.5933   -0.1875 H   0  0  0  0  0  0  0  0  0  0  0  0
    1.0584    1.9142    0.5773 H   0  0  0  0  0  0  0  0  0  0  0  0
    0.7178    0.6207   -1.5119 H   0  0  0  0  0  0  0  0  0  0  0  0
    1.8733   -0.6054   -0.9764 H   0  0  0  0  0  0  0  0  0  0  0  0
   -0.7167    0.6219    1.5118 H   0  0  0  0  0  0  0  0  0  0  0  0
   -1.8725   -0.6048    0.9780 H   0  0  0  0  0  0  0  0  0  0  0  0
   -2.6122    1.5933    0.1877 H   0  0  0  0  0  0  0  0  0  0  0  0
   -2.1126    0.6434   -1.2103 H   0  0  0  0  0  0  0  0  0  0  0  0
   -1.0586    1.9132   -0.5787 H   0  0  0  0  0  0  0  0  0  0  0  0
  1  2  1  0  0  0  0
  2  3  1  0  0  0  0
  3  4  2  0  0  0  0
  3  5  1  0  0  0  0
  5  6  1  0  0  0  0
  1  7  1  0  0  0  0
  1  8  1  0  0  0  0
  1  9  1  0  0  0  0
  2 10  1  0  0  0  0
  2 11  1  0  0  0  0
  5 12  1  0  0  0  0
  5 13  1  0  0  0  0
  6 14  1  0  0  0  0
  6 15  1  0  0  0  0
  6 16  1  0  0  0  0
M  END
