 xtb: 6.7.1 (edcfbbe)
          04072506013D

 15 14  0     0  0            999 V2000
    2.8150   -0.4382   -0.0907 C   0  0  0  0  0  0  0  0  0  0  0  0
    1.3880   -0.3235    0.4294 C   0  0  0  0  0  0  0  0  0  0  0  0
    0.6424    0.8413   -0.2183 C   0  0  0  0  0  0  0  0  0  0  0  0
   -0.7796    0.9828    0.2978 C   0  0  0  0  0  0  0  0  0  0  0  0
   -1.7934   -0.4740   -0.1999 S   0  0  0  0  0  0  0  0  0  0  0  0
    3.3254   -1.2736    0.3815 H   0  0  0  0  0  0  0  0  0  0  0  0
    3.3720    0.4716    0.1219 H   0  0  0  0  0  0  0  0  0  0  0  0
    2.8163   -0.5983   -1.1665 H   0  0  0  0  0  0  0  0  0  0  0  0
    1.4041   -0.1826    1.5128 H   0  0  0  0  0  0  0  0  0  0  0  0
    0.8494   -1.2519    0.2234 H   0  0  0  0  0  0  0  0  0  0  0  0
    0.6188    0.6997   -1.3018 H   0  0  0  0  0  0  0  0  0  0  0  0
    1.1742    1.7735   -0.0121 H   0  0  0  0  0  0  0  0  0  0  0  0
   -0.7974    1.0334    1.3860 H   0  0  0  0  0  0  0  0  0  0  0  0
   -1.2597    1.8627   -0.1275 H   0  0  0  0  0  0  0  0  0  0  0  0
   -2.9359   -0.0181    0.2961 H   0  0  0  0  0  0  0  0  0  0  0  0
  1  2  1  0  0  0  0
  2  3  1  0  0  0  0
  3  4  1  0  0  0  0
  4  5  1  0  0  0  0
  1  6  1  0  0  0  0
  1  7  1  0  0  0  0
  1  8  1  0  0  0  0
  2  9  1  0  0  0  0
  2 10  1  0  0  0  0
  3 11  1  0  0  0  0
  3 12  1  0  0  0  0
  4 13  1  0  0  0  0
  4 14  1  0  0  0  0
  5 15  1  0  0  0  0
M  END
