 xtb: 6.7.1 (edcfbbe)
          04112512193D

 17 16  0     0  0            999 V2000
   -2.7445   -0.1235    0.6394 C   0  0  0  0  0  0  0  0  0  0  0  0
   -1.7064    0.7130   -0.1009 C   0  0  0  0  0  0  0  0  0  0  0  0
   -0.4129   -0.0390   -0.2873 C   0  0  0  0  0  0  0  0  0  0  0  0
   -0.3203   -1.2354   -0.4622 O   0  0  0  0  0  0  0  0  0  0  0  0
    0.6305    0.7837   -0.2642 O   0  0  0  0  0  0  0  0  0  0  0  0
    1.9449    0.2290   -0.4436 C   0  0  0  0  0  0  0  0  0  0  0  0
    2.5196   -0.2558    0.8786 C   0  0  0  0  0  0  0  0  0  0  0  0
   -2.4255   -0.3091    1.6617 H   0  0  0  0  0  0  0  0  0  0  0  0
   -3.6985    0.3940    0.6579 H   0  0  0  0  0  0  0  0  0  0  0  0
   -2.8688   -1.0824    0.1426 H   0  0  0  0  0  0  0  0  0  0  0  0
   -1.4921    1.6465    0.4180 H   0  0  0  0  0  0  0  0  0  0  0  0
   -2.0742    0.9553   -1.1010 H   0  0  0  0  0  0  0  0  0  0  0  0
    1.8811   -0.5949   -1.1607 H   0  0  0  0  0  0  0  0  0  0  0  0
    2.5340    1.0479   -0.8571 H   0  0  0  0  0  0  0  0  0  0  0  0
    1.9194   -1.0759    1.2665 H   0  0  0  0  0  0  0  0  0  0  0  0
    3.5350   -0.6053    0.7231 H   0  0  0  0  0  0  0  0  0  0  0  0
    2.5249    0.5535    1.6036 H   0  0  0  0  0  0  0  0  0  0  0  0
  1  2  1  0  0  0  0
  2  3  1  0  0  0  0
  3  4  2  0  0  0  0
  3  5  1  0  0  0  0
  5  6  1  0  0  0  0
  6  7  1  0  0  0  0
  1  8  1  0  0  0  0
  1  9  1  0  0  0  0
  1 10  1  0  0  0  0
  2 11  1  0  0  0  0
  2 12  1  0  0  0  0
  6 13  1  0  0  0  0
  6 14  1  0  0  0  0
  7 15  1  0  0  0  0
  7 16  1  0  0  0  0
  7 17  1  0  0  0  0
M  END
