 xtb: 6.7.1 (edcfbbe)
          04112512473D

 23 22  0     0  0            999 V2000
    2.6438    0.4869    0.6168 C   0  0  0  0  0  0  0  0  0  0  0  0
    1.3083   -0.2157    0.8380 C   0  0  0  0  0  0  0  0  0  0  0  0
    0.2962    0.0431   -0.2899 C   0  0  0  0  0  0  0  0  0  0  0  0
    0.3773    1.0927   -0.5952 H   0  0  0  0  0  0  0  0  0  0  0  0
    0.6464   -0.8346   -1.4925 C   0  0  0  0  0  0  0  0  0  0  0  0
   -1.1471   -0.1947    0.2051 C   0  0  0  0  0  0  0  0  0  0  0  0
   -1.6009    0.9373    1.1291 C   0  0  0  0  0  0  0  0  0  0  0  0
   -2.1527   -0.3073   -0.9421 C   0  0  0  0  0  0  0  0  0  0  0  0
    3.1188    0.1556   -0.3031 H   0  0  0  0  0  0  0  0  0  0  0  0
    2.4999    1.5636    0.5586 H   0  0  0  0  0  0  0  0  0  0  0  0
    3.3208    0.2758    1.4414 H   0  0  0  0  0  0  0  0  0  0  0  0
    0.9001    0.1265    1.7895 H   0  0  0  0  0  0  0  0  0  0  0  0
    1.4723   -1.2924    0.9235 H   0  0  0  0  0  0  0  0  0  0  0  0
    1.7024   -0.7388   -1.7313 H   0  0  0  0  0  0  0  0  0  0  0  0
    0.4416   -1.8801   -1.2707 H   0  0  0  0  0  0  0  0  0  0  0  0
    0.0807   -0.5456   -2.3731 H   0  0  0  0  0  0  0  0  0  0  0  0
   -1.1617   -1.1355    0.7679 H   0  0  0  0  0  0  0  0  0  0  0  0
   -0.9295    1.0669    1.9732 H   0  0  0  0  0  0  0  0  0  0  0  0
   -2.5941    0.7281    1.5199 H   0  0  0  0  0  0  0  0  0  0  0  0
   -1.6408    1.8747    0.5779 H   0  0  0  0  0  0  0  0  0  0  0  0
   -3.1623   -0.3632   -0.5409 H   0  0  0  0  0  0  0  0  0  0  0  0
   -1.9808   -1.1974   -1.5394 H   0  0  0  0  0  0  0  0  0  0  0  0
   -2.0913    0.5666   -1.5873 H   0  0  0  0  0  0  0  0  0  0  0  0
  1  2  1  0  0  0  0
  2  3  1  0  0  0  0
  3  4  1  0  0  0  0
  3  5  1  0  0  0  0
  3  6  1  0  0  0  0
  6  7  1  0  0  0  0
  6  8  1  0  0  0  0
  1  9  1  0  0  0  0
  1 10  1  0  0  0  0
  1 11  1  0  0  0  0
  2 12  1  0  0  0  0
  2 13  1  0  0  0  0
  5 14  1  0  0  0  0
  5 15  1  0  0  0  0
  5 16  1  0  0  0  0
  6 17  1  0  0  0  0
  7 18  1  0  0  0  0
  7 19  1  0  0  0  0
  7 20  1  0  0  0  0
  8 21  1  0  0  0  0
  8 22  1  0  0  0  0
  8 23  1  0  0  0  0
M  END
