 xtb: 6.7.1 (edcfbbe)
          04112512273D

 13 12  0     0  0            999 V2000
   -1.8513   -0.7596   -0.1218 C   0  0  0  0  0  0  0  0  0  0  0  0
   -1.3269    0.6042    0.3126 C   0  0  0  0  0  0  0  0  0  0  0  0
    0.0728    0.8662   -0.2467 C   0  0  0  0  0  0  0  0  0  0  0  0
    1.0919   -0.0503    0.3376 C   0  0  0  0  0  0  0  0  0  0  0  0
    2.0067   -0.5638   -0.2615 O   0  0  0  0  0  0  0  0  0  0  0  0
   -1.1883   -1.5516    0.2216 H   0  0  0  0  0  0  0  0  0  0  0  0
   -2.8421   -0.9358    0.2885 H   0  0  0  0  0  0  0  0  0  0  0  0
   -1.9131   -0.8169   -1.2060 H   0  0  0  0  0  0  0  0  0  0  0  0
   -1.2960    0.6550    1.4024 H   0  0  0  0  0  0  0  0  0  0  0  0
   -2.0024    1.3829   -0.0425 H   0  0  0  0  0  0  0  0  0  0  0  0
    0.0885    0.7863   -1.3346 H   0  0  0  0  0  0  0  0  0  0  0  0
    0.3864    1.8785    0.0252 H   0  0  0  0  0  0  0  0  0  0  0  0
    0.9688   -0.2355    1.4212 H   0  0  0  0  0  0  0  0  0  0  0  0
  1  2  1  0  0  0  0
  2  3  1  0  0  0  0
  3  4  1  0  0  0  0
  4  5  2  0  0  0  0
  1  6  1  0  0  0  0
  1  7  1  0  0  0  0
  1  8  1  0  0  0  0
  2  9  1  0  0  0  0
  2 10  1  0  0  0  0
  3 11  1  0  0  0  0
  3 12  1  0  0  0  0
  4 13  1  0  0  0  0
M  END
