 21

C      2.681000     0.261000    -3.644000
C      2.635000     0.240000    -2.124000
C      1.931000    -1.014000    -1.603000
C      1.885000    -1.036000    -0.112000
C      2.921000    -1.631000     0.608000
C      2.878000    -1.652000     2.002000
C      1.800000    -1.079000     2.676000
C      0.764000    -0.484000     1.955000
C      0.807000    -0.463000     0.561000
H      3.186000     1.161000    -4.009000
H      3.212000    -0.613000    -4.032000
H      1.666000     0.252000    -4.054000
H      2.118000     1.139000    -1.768000
H      3.659000     0.289000    -1.734000
H      2.447000    -1.910000    -1.971000
H      0.911000    -1.062000    -2.006000
H      3.765000    -2.080000     0.091000
H      3.685000    -2.115000     2.563000
H      1.766000    -1.095000     3.761000
H     -0.076000    -0.038000     2.479000
H     -0.005000     0.003000     0.008000
