17
CONF31
C -2.4302578820 -0.5157170715 -0.7653480312
C -2.1065518196 0.5505083631 0.2776392539
C -0.8056256263 0.2633034135 1.0228483995
C 0.4160110053 0.3828075628 0.1554974629
O 0.5117303632 1.0825140564 -0.8386411531
O 1.4396154367 -0.3581089914 0.6288569843
C 2.6911404161 -0.2410806813 -0.0960733323
H -3.3730535684 -0.2938188335 -1.2748332049
H -1.6462342099 -0.5790912333 -1.5278597180
H -2.5243386615 -1.5016288973 -0.2970857252
H -2.9144376282 0.6024267637 1.0150740034
H -2.0451176925 1.5369237617 -0.1947286870
H -0.8210715544 -0.7289098808 1.4846472870
H -0.6597901786 0.9848999663 1.8386291541
H 3.3927659441 -0.8845267900 0.4335587135
H 3.0394590521 0.7944577004 -0.0835103710
H 2.5644111049 -0.5827956359 -1.1261244160
17
CONF3
C -2.2034181116 1.0057739740 -0.6606334028
C -2.1004085536 -0.2913436965 0.1362952142
C -0.8261516310 -0.3484545250 0.9857299357
C 0.4099217492 -0.3564493023 0.1312111279
O 0.5781584986 -1.0788756094 -0.8382250670
O 1.3372065855 0.5245237197 0.5552980820
C 2.5730644864 0.5544356080 -0.2049376231
H -1.3573541552 1.1172663292 -1.3492647941
H -3.1210340320 1.0299499569 -1.2563855925
H -2.2095456953 1.8751041067 0.0059594825
H -2.1225541227 -1.1537573555 -0.5387824340
H -2.9600586033 -0.3883972413 0.8074707918
H -0.8041710354 -1.2776221181 1.5691943660
H -0.7847271950 0.4879138852 1.6881937163
H 3.0673259191 -0.4190452459 -0.1607501011
H 3.1882341405 1.3152274364 0.2740822717
H 2.3705137026 0.8268098723 -1.2434757813
17
CONF30
C -2.4185758390 0.3053238606 -0.9119310142
C -2.1263966768 -0.3724445617 0.4237269179
C -0.8129195159 0.0984098162 1.0426136289
C 0.3994596060 -0.3325815037 0.2655110104
O 0.4613422360 -1.3066530995 -0.4656877420
O 1.4543676607 0.4743482649 0.4990457113
C 2.6959660341 0.0965901366 -0.1498558550
H -3.3696679896 -0.0397867447 -1.3289679228
H -2.4784219638 1.3924837172 -0.7912579449
H -1.6351181890 0.0915634559 -1.6470872671
H -2.1007925682 -1.4605395592 0.2998223204
H -2.9317903300 -0.1534555518 1.1328125469
H -0.6856454890 -0.3229355067 2.0494171292
H -0.7942192757 1.1868698840 1.1577038494
H 3.0078526425 -0.8970903122 0.1802438295
H 3.4231356768 0.8457469503 0.1606099032
H 2.5740717308 0.1113814043 -1.2354168932
17
CONF4
C -2.2502091283 1.0766499236 0.5534621268
C -2.1043659640 -0.2915745734 -0.1053620460
C -0.8154037932 -0.4046182211 -0.9231004107
C 0.4114087986 -0.3196757331 -0.0588812063
O 0.5439829035 -0.8775539746 1.0181952636
O 1.3806871431 0.4331861419 -0.6161335069
C 2.6179897634 0.5284030657 0.1371133258
H -2.2509025822 1.8733680895 -0.1983324303
H -3.1846614776 1.1449851950 1.1186940947
H -1.4257528276 1.2727288990 1.2488444466
H -2.9492840107 -0.4751790755 -0.7769668101
H -2.1222317809 -1.0816033047 0.6528763505
H -0.7716881080 0.3644889163 -1.6986923797
H -0.7679984589 -1.3803875650 -1.4242786497
H 3.2739969502 1.1561356679 -0.4643033190
H 3.0557756744 -0.4632602693 0.2713046606
H 2.4317485417 0.9923464621 1.1083756618
17
CONF9
C -3.2624359716 0.4692213241 0.0914665980
C -1.9576172175 -0.2239720252 -0.2873493272
C -0.7519292612 0.5056281182 0.2912519665
C 0.5606790706 -0.1356832150 -0.0530244525
O 0.7061088989 -1.1424776340 -0.7248536393
O 1.5981355201 0.5453615979 0.4789585290
C 2.9164338390 0.0035064110 0.2044400030
H -4.1236576120 -0.0588905181 -0.3285959709
H -3.3875923185 0.5054318822 1.1790777162
H -3.2835658607 1.4984922984 -0.2826128618
H -1.8633306160 -0.2719353282 -1.3779289269
H -1.9641448733 -1.2578543811 0.0751668422
H -0.8150496608 0.5634938296 1.3854276638
H -0.7149398687 1.5447149207 -0.0600744741
H 3.6138106085 0.6759866107 0.7025697261
H 3.1025628320 -0.0094335268 -0.8719283647
H 3.0022119091 -1.0057697172 0.6136645549
17
CONF6
C -2.1566704431 1.0821371753 0.5666989359
C -2.0951691607 -0.2893824499 -0.0983354526
C -0.8351502221 -0.4618136443 -0.9560859338
C 0.4088655963 -0.3942511680 -0.1161423086
O 0.6062336013 -1.0667232982 0.8832959673
O 1.3025396403 0.4990718218 -0.5842851265
C 2.5381375575 0.6111714832 0.1688501867
H -2.1499782993 1.8811319244 -0.1826159150
H -3.0655873196 1.1886284834 1.1665906522
H -1.2994737535 1.2397185255 1.2322623443
H -2.9669990054 -0.4329100585 -0.7448852025
H -2.1248647300 -1.0797020655 0.6594835893
H -0.7923446937 0.2946540814 -1.7435193011
H -0.8380267484 -1.4495731065 -1.4328992492
H 3.0694114775 -0.3434280706 0.1662989191
H 2.3274840172 0.9218880330 1.1948638421
H 3.1220224552 1.3726827372 -0.3464552206
17
CONF5
C -2.1517943746 1.0614664150 0.5886471231
C -2.0906218198 -0.2942795468 -0.1076083793
C -0.8350858120 -0.4423510476 -0.9768533324
C 0.4118350723 -0.3984523418 -0.1400149681
O 0.6195130368 -1.1114124550 0.8285495477
O 1.2951045258 0.5238477248 -0.5717527516
C 2.5292443142 0.6187715877 0.1881613982
H -1.2945433619 1.2040244542 1.2574484082
H -2.1447821572 1.8768959758 -0.1428032060
H -3.0607616724 1.1549073459 1.1905538043
H -2.9658148812 -0.4256536661 -0.7522622002
H -2.1132037095 -1.1020650019 0.6319000835
H -0.7976355551 0.3372162888 -1.7416985030
H -0.8406312202 -1.4159434843 -1.4817242532
H 3.1069705317 1.4037412003 -0.2981326182
H 3.0680617696 -0.3307553934 0.1517939785
H 2.3122805698 0.8901773717 1.2237915894
17
CONF7
C -2.2803634671 0.9270299041 -0.6979960375
C -2.1033478614 -0.3188986827 0.1654348846
C -0.8147002391 -0.2719993928 0.9889679478
C 0.4148331801 -0.3169624983 0.1253191166
O 0.5526708497 -1.0271743314 -0.8568028933
O 1.3823428492 0.5091561465 0.5708720237
C 2.6250873561 0.4895639273 -0.1779550268
H -3.2095285888 0.8788368297 -1.2741083643
H -2.3136129671 1.8297380997 -0.0782031872
H -1.4532580636 1.0384485130 -1.4088547262
H -2.0994233262 -1.2172296292 -0.4612577056
H -2.9461658258 -0.4165734105 0.8574114157
H -0.7526839786 -1.1472758279 1.6490509943
H -0.7834457870 0.6176710280 1.6238897897
H 3.0684693495 -0.5087155705 -0.1481779194
H 3.2732527768 1.2087269881 0.3214716474
H 2.4464299682 0.7915837411 -1.2127438133
17
CONF25
C -3.2678340027 0.4151042424 0.1382481605
C -1.9295559833 0.1512374036 -0.5444030460
C -0.7700788834 0.2918033043 0.4339923714
C 0.5746215018 0.0500417220 -0.1879242758
O 0.7728645987 -0.2938163602 -1.3412925064
O 1.5721760710 0.2565539417 0.6963047745
C 2.9168131643 0.0432097532 0.1945642671
H -3.3036365712 1.4273612500 0.5556973949
H -4.0966785035 0.3134205693 -0.5688463966
H -3.4363325794 -0.2911525743 0.9586769040
H -1.7885846440 0.8514278362 -1.3755414402
H -1.9216272242 -0.8562710496 -0.9747951827
H -0.8758380311 -0.4123469613 1.2698696226
H -0.7544389182 1.2912692563 0.8863263706
H 3.5763475304 0.2699096084 1.0315819213
H 3.1187552416 0.7158118635 -0.6425726839
H 3.0430403937 -0.9960759218 -0.1188892078
17
CONF1
C -2.1278894461 0.9376336387 -0.7354461864
C -2.0792019790 -0.2955415125 0.1613657202
C -0.8333677661 -0.3122179603 1.0576346579
C 0.4212010227 -0.3681973830 0.2334048787
O 0.6585539520 -1.2215164997 -0.6069041528
O 1.2714967850 0.6392427359 0.5124644380
C 2.5053813029 0.6526085444 -0.2527967973
H -3.0415218672 0.9510601083 -1.3375058390
H -2.1008275909 1.8566759070 -0.1395554874
H -1.2758224353 0.9603981115 -1.4255099653
H -2.0968435566 -1.2066368282 -0.4469336601
H -2.9616273824 -0.3254422044 0.8090241554
H -0.8380634755 -1.2079314675 1.6901268941
H -0.8123215140 0.5657010750 1.7081610230
H 3.0542146970 1.5257713871 0.0998056599
H 2.2850179697 0.7453165777 -1.3193530933
H 3.0765772189 -0.2597655537 -0.0637773203
17
CONF21
C -3.2664413611 0.4255033757 0.1387127054
C -1.9241500039 0.2280627600 -0.5582481078
C -0.7710637199 0.2583112390 0.4370301745
C 0.5773759858 0.0843958862 -0.1990769562
O 0.7827571603 -0.1354116332 -1.3809654442
O 1.5696630314 0.1958713473 0.7081715488
C 2.9168972297 0.0310129776 0.1957431737
H -3.4459150151 -0.3624600134 0.8783507048
H -3.3010867282 1.3883620844 0.6601437706
H -4.0895740570 0.4040968674 -0.5818961484
H -1.7746988354 1.0114119321 -1.3099179694
H -1.9175267994 -0.7281809755 -1.0929648601
H -0.8817910341 -0.5344261070 1.1888608581
H -0.7582712554 1.2007070709 0.9985811589
H 3.1316206478 0.7949404750 -0.5553146868
H 3.0384065317 -0.9654469205 -0.2357066229
H 3.5706041772 0.1529920761 1.0585860209
17
CONF19
C -3.2553845435 0.5031776363 0.0192014844
C -1.9688305553 -0.3158354509 0.0234727396
C -0.7383375113 0.5825328254 0.0364271947
C 0.5585306121 -0.1732085237 0.0501455884
O 0.6802943477 -1.3795713824 -0.0796201509
O 1.6110160259 0.6554127715 0.2168381696
C 2.9180097668 0.0241045960 0.2243152620
H -4.1350938854 -0.1474583249 0.0107445565
H -3.3179777651 1.1422615842 0.9066864725
H -3.3064716852 1.1501001770 -0.8633960684
H -1.9357813026 -0.9654215807 -0.8580361088
H -1.9460310151 -0.9723798499 0.9007457807
H -0.7478756749 1.2548738232 0.9027611845
H -0.7225699603 1.2344940815 -0.8474517054
H 3.1076444842 -0.4628147921 -0.7352560641
H 2.9806924555 -0.7049391436 1.0354995435
H 3.6283928155 0.8340938099 0.3858213993
17
CONF2
C -2.2107765056 1.0323900038 0.6020948545
C -2.0996009778 -0.2994745639 -0.1339854283
C -0.8206311851 -0.3905241578 -0.9732045173
C 0.4108890090 -0.3606399896 -0.1125042723
O 0.5727327067 -1.0371885594 0.8905170442
O 1.3424851571 0.4974137339 -0.5728987692
C 2.5752423013 0.5593499520 0.1906074904
H -3.1313479983 1.0810330212 1.1917307871
H -1.3683132122 1.1784969184 1.2886829211
H -2.2163723224 1.8699871167 -0.1039416808
H -2.9555117871 -0.4302113074 -0.8042164829
H -2.1221973860 -1.1302686416 0.5795943362
H -0.7761910134 0.4155411937 -1.7100240117
H -0.7939391674 -1.3433057515 -1.5170974741
H 3.1946658123 1.2952920267 -0.3206687115
H 3.0667851302 -0.4164956762 0.1938599538
H 2.3689457107 0.8803907720 1.2143997478
17
CONF22
C -3.2542650466 0.5158849797 -0.0215038306
C -1.9739650209 -0.2819440027 0.2037793758
C -0.7364269297 0.5577428286 -0.0901035275
C 0.5543206665 -0.1803779852 0.1163494759
O 0.6668867664 -1.3846891508 0.2740832048
O 1.6122804358 0.6576500272 0.0920260959
C 2.9151668232 0.0374920424 0.2443176241
H -4.1385221839 -0.0932868313 0.1894725435
H -3.2897939895 1.3969465333 0.6287971080
H -3.3235934970 0.8624257049 -1.0585746898
H -1.9710225542 -1.1713980683 -0.4356200055
H -1.9314319614 -0.6368349943 1.2400717829
H -0.7161202802 1.4653875480 0.5242822705
H -0.7415452061 0.9019740235 -1.1338316373
H 3.6296722837 0.8593584390 0.2242058176
H 3.1039600593 -0.6516028930 -0.5824647535
H 2.9723949551 -0.4938376405 1.1970293615
17
CONF8
C -2.1170995964 1.0774499125 -0.6255717552
C -2.0912483173 -0.2584799152 0.1107286907
C -0.8383160301 -0.4168093222 0.9834426033
C 0.4071359540 -0.4039748947 0.1434493322
O 0.6158457775 -1.1566519242 -0.7948459727
O 1.2837467323 0.5437271523 0.5296937344
C 2.5107446349 0.6215763198 -0.2413675043
H -2.0864855168 1.9145019086 0.0805808292
H -1.2578728922 1.1762680225 -1.2999694773
H -3.0243147590 1.1771106863 -1.2293246169
H -2.1372438583 -1.0864280324 -0.6051073220
H -2.9684055621 -0.3470251975 0.7601065450
H -0.8616914485 -1.3828234471 1.5016645882
H -0.7874353589 0.3739548287 1.7359542239
H 3.0741878463 1.4452937884 0.1956195910
H 2.2844720401 0.8286748162 -1.2901228651
H 3.0710512295 -0.3124549581 -0.1542929368
17
CONF11
C -2.1442497948 0.9749698461 0.6668018342
C -1.8391625354 0.3470924441 -0.6889388466
C -0.9193472744 -0.8820337052 -0.5779362280
C 0.3774171204 -0.5433026052 0.0982300404
O 0.7170224645 -0.9225126713 1.2072294750
O 1.1397096154 0.2689103344 -0.6603468406
C 2.3953904862 0.6927310314 -0.0707221648
H -2.5914298203 0.2423782843 1.3475230991
H -1.2350788226 1.3622303484 1.1414412404
H -2.8433375831 1.8100344355 0.5614953468
H -1.3778034475 1.0866043795 -1.3518200955
H -2.7679462535 0.0224842092 -1.1695269245
H -0.7028543881 -1.2752004482 -1.5767020321
H -1.4029639486 -1.6646620813 0.0115891581
H 2.2084026489 1.2705157528 0.8375062157
H 2.8729428522 1.3161507486 -0.8256344800
H 3.0185860429 -0.1751109120 0.1565053225
17
CONF13
C -2.1533283296 0.8826434585 0.7395493099
C -1.8481239715 0.3738387446 -0.6651068394
C -0.9144091748 -0.8496780972 -0.6616679171
C 0.3846123733 -0.5569326081 0.0314614428
O 0.7375025207 -1.0280020808 1.1007628083
O 1.1317445838 0.3279766511 -0.6592791633
C 2.3902175424 0.7100370340 -0.0448766727
H -1.2472801483 1.2452765470 1.2391586090
H -2.8671469659 1.7113203895 0.7075569142
H -2.5831874993 0.0889707645 1.3604536765
H -1.3990687940 1.1717342077 -1.2662184020
H -2.7757605481 0.0794245185 -1.1674047095
H -0.7007093405 -1.1561063762 -1.6910056510
H -1.3864889890 -1.6839371815 -0.1370253039
H 3.0307984107 -0.1663137860 0.0782668518
H 2.2082987139 1.1830059069 0.9230479536
H 2.8445331857 1.4193277851 -0.7356805106
17
CONF24
C -3.2055269266 0.4584628594 0.1369128140
C -1.8438012645 -0.2202598960 0.2263511800
C -0.7392694243 0.6553718473 -0.3872748606
C 0.5853744819 -0.0452475641 -0.3305076951
O 0.8400677440 -1.0900835876 -0.9089137031
O 1.4754194596 0.5896544918 0.4578568820
C 2.7718296983 -0.0499480276 0.5877411663
H -3.2041152650 1.4162851146 0.6680988104
H -3.4778998029 0.6521969244 -0.9061915803
H -3.9841933015 -0.1706902002 0.5788009341
H -1.8672662847 -1.1823761202 -0.2966371937
H -1.5951367049 -0.4277852641 1.2738723484
H -0.6809838873 1.6165961440 0.1289349631
H -0.9670474854 0.8406288054 -1.4434667736
H 3.2618929151 -0.1101969024 -0.3871606004
H 2.6577602497 -1.0497023433 1.0142267033
H 3.3422142587 0.5883558381 1.2617311746
17
CONF18
C -2.1290972876 0.6564171499 -0.8982110750
C -1.8332105360 0.5278478749 0.5925830720
C -0.9004416212 -0.6522878818 0.9014604635
C 0.4157568463 -0.5623889231 0.1820288228
O 0.8755422953 -1.4179585016 -0.5575512350
O 1.0559549751 0.5934005793 0.4479893031
C 2.3344142367 0.7774985885 -0.2115474685
H -2.8205532902 1.4819993588 -1.0919178354
H -1.2137939607 0.8498455829 -1.4704165702
H -2.5800726275 -0.2621133719 -1.2894398045
H -2.7645398207 0.3706283229 1.1468366784
H -1.3896946522 1.4544139357 0.9712358634
H -1.3653488995 -1.5970603690 0.6091347528
H -0.6898805259 -0.6924916415 1.9769112112
H 2.2038065367 0.7676546494 -1.2962072257
H 3.0316932379 -0.0071555260 0.0906494077
H 2.6918414498 1.7516990319 0.1189488268
17
CONF16
C -3.1610283093 0.6811022374 0.0660989082
C -1.7460525693 0.5168456326 -0.4756947027
C -0.8439018995 -0.2212889244 0.5293301804
C 0.5368479909 -0.3787486224 -0.0325604377
O 0.8335744611 -1.1421881773 -0.9385158075
O 1.4265556861 0.4531881605 0.5445351766
C 2.7771498479 0.4008334917 0.0153941933
H -3.7963120296 1.2039818106 -0.6555659445
H -3.6160513111 -0.2933332216 0.2739060839
H -3.1611698135 1.2586910278 0.9966171000
H -1.3108489964 1.4992761448 -0.6938372749
H -1.7651380547 -0.0442958902 -1.4165340225
H -1.2461949097 -1.2231415144 0.7130841296
H -0.8076955801 0.3240452226 1.4756998342
H 3.1934477031 -0.6014810402 0.1414265012
H 3.3434694266 1.1250846425 0.5991884103
H 2.7780478351 0.6779911220 -1.0414562727
17
CONF20
C -3.1461266312 0.5201491717 0.1807756530
C -1.7481868346 -0.0468877957 0.3980130226
C -0.7622386402 0.4745766789 -0.6644170500
C 0.5934797182 -0.1269783396 -0.4522014344
O 0.9652662579 -1.1943724911 -0.9139980347
O 1.3588771078 0.6221481637 0.3672113032
C 2.6618809990 0.0726034531 0.6930393775
H -3.8402156765 0.1472886051 0.9402711602
H -3.1386599351 1.6138946904 0.2371726720
H -3.5360012747 0.2356442752 -0.8024009815
H -1.7752662118 -1.1416935051 0.3534452049
H -1.3812134874 0.2275699932 1.3935906675
H -0.7008779128 1.5650898190 -0.6087067561
H -1.1079461042 0.1856288801 -1.6609296358
H 3.1161795590 0.7922195826 1.3731498134
H 3.2646450398 -0.0287408873 -0.2125767802
H 2.5510903054 -0.8976742283 1.1827353476
17
CONF28
C -3.1100399615 0.7593629027 0.0595769666
C -1.6004438400 0.8256645451 -0.1527687986
C -0.9370785802 -0.5005058851 0.2197403078
C 0.5459088342 -0.5897761770 -0.0009323379
O 1.1436319901 -1.6268573891 -0.2457839086
O 1.1685324978 0.5951151901 0.1317867558
C 2.6111485693 0.5721477155 -0.0201659093
H -3.5869348364 1.7061245604 -0.2113490696
H -3.5593802796 -0.0313387468 -0.5510363933
H -3.3484754090 0.5494429477 1.1081599824
H -1.1774629720 1.6349718778 0.4503229242
H -1.3804832768 1.0584110362 -1.2012609844
H -1.3890266226 -1.3319662543 -0.3297810386
H -1.0963142295 -0.7098895305 1.2874877760
H 3.0593071670 -0.0714159190 0.7405180564
H 2.9320583333 1.6039882029 0.1171050458
H 2.8800594228 0.2182231198 -1.0180872025
17
CONF15
C -3.1260326922 0.6992743033 0.0114855074
C -1.6865317843 0.5037699429 -0.4502866792
C -0.8616818108 -0.2659937998 0.5987665681
C 0.5351353340 -0.4785797088 0.1003482036
O 0.9048895079 -1.4351943584 -0.5628823712
O 1.3493128442 0.5476987503 0.4217390086
C 2.7023702356 0.4664096496 -0.0953058017
H -3.7053870496 1.2451432192 -0.7398090405
H -3.6168927167 -0.2649224358 0.1824556434
H -3.1643938439 1.2681177186 0.9468836565
H -1.2152482757 1.4759904558 -0.6345250010
H -1.6669269196 -0.0498605457 -1.3962234498
H -1.3113456796 -1.2470567775 0.7754592166
H -0.8431283691 0.2944680910 1.5380611996
H 2.6872884001 0.4195626516 -1.1868472939
H 3.2101159043 -0.4110967864 0.3123717001
H 3.1947057309 1.3789566437 0.2391228062
17
CONF23
C -3.1852122687 0.5816118811 0.0122863869
C -1.7785770944 0.3008827231 -0.5029375236
C -0.8230794395 -0.0606582582 0.6473306196
C 0.5441063315 -0.3705292139 0.1159603121
O 0.8135925297 -1.3400040151 -0.5757994944
O 1.4564921167 0.5623671735 0.4542680728
C 2.7963257469 0.3499088488 -0.0622875570
H -3.1843697201 1.4126060874 0.7257259171
H -3.8568492476 0.8442872772 -0.8108046162
H -3.5984804226 -0.2970781501 0.5192561624
H -1.3882729982 1.1797561083 -1.0296078758
H -1.7982920112 -0.5248830756 -1.2224965744
H -1.1905229125 -0.9586583895 1.1564857813
H -0.7724151933 0.7563995569 1.3711286120
H 3.3840440399 1.1898394063 0.3060080940
H 2.7823982015 0.3437626431 -1.1546539503
H 3.2004281840 -0.5926280578 0.3141377449
17
CONF17
C -3.1234725056 0.6001447452 0.1647335209
C -1.7053364904 0.1424267089 0.4847601689
C -0.7921188638 0.2470053680 -0.7505565002
C 0.5854875102 -0.2528214238 -0.4369475253
O 1.0172122615 -1.3585045090 -0.7228537092
O 1.3039514818 0.6557822977 0.2533053373
C 2.6310032123 0.2357078307 0.6614974141
H -3.1308365260 1.6419097901 -0.1732877839
H -3.5656982716 -0.0145210207 -0.6265171070
H -3.7652815617 0.5266059278 1.0480634981
H -1.7153826898 -0.8963991155 0.8350152618
H -1.2875793184 0.7523241751 1.2931340080
H -0.7375271203 1.2902140931 -1.0781181397
H -1.1931545871 -0.3611897724 -1.5653403565
H 3.2449480630 0.0207688401 -0.2165106760
H 2.5683792529 -0.6476703759 1.3014063951
H 3.0428439643 1.0782292204 1.2158589355
