 xtb: 6.7.1 (edcfbbe)
          04112510483D

 27 27  0     0  0            999 V2000
   -4.0259   -0.6238   -1.6341 C   0  0  0  0  0  0  0  0  0  0  0  0
   -3.0255   -1.5396   -0.9380 C   0  0  0  0  0  0  0  0  0  0  0  0
   -2.4573   -1.0310    0.3972 C   0  0  0  0  0  0  0  0  0  0  0  0
   -1.9736   -1.8907    0.8767 H   0  0  0  0  0  0  0  0  0  0  0  0
   -3.5044   -0.4846    1.3574 C   0  0  0  0  0  0  0  0  0  0  0  0
   -1.3340   -0.0919    0.1838 N   0  0  0  0  0  0  0  0  0  0  0  0
   -0.0611   -0.6675    0.2320 C   0  0  0  0  0  0  0  0  0  0  0  0
    0.0862   -1.8657    0.4089 O   0  0  0  0  0  0  0  0  0  0  0  0
    1.0441    0.2496    0.0683 C   0  0  0  0  0  0  0  0  0  0  0  0
    0.8670    1.5781   -0.1404 C   0  0  0  0  0  0  0  0  0  0  0  0
   -0.4200    2.0185   -0.2000 N   0  0  0  0  0  0  0  0  0  0  0  0
   -1.5481    1.2413   -0.0719 C   0  0  0  0  0  0  0  0  0  0  0  0
   -2.6411    1.7617   -0.1889 O   0  0  0  0  0  0  0  0  0  0  0  0
    1.9318    2.5940   -0.3224 C   0  0  0  0  0  0  0  0  0  0  0  0
    2.7648   -0.5545    0.1624 Br  0  0  0  0  0  0  0  0  0  0  0  0
   -4.2787   -1.0394   -2.6063 H   0  0  0  0  0  0  0  0  0  0  0  0
   -4.9382   -0.5400   -1.0512 H   0  0  0  0  0  0  0  0  0  0  0  0
   -3.6221    0.3736   -1.7782 H   0  0  0  0  0  0  0  0  0  0  0  0
   -3.5094   -2.4968   -0.7363 H   0  0  0  0  0  0  0  0  0  0  0  0
   -2.1809   -1.7393   -1.6033 H   0  0  0  0  0  0  0  0  0  0  0  0
   -4.2405   -1.2622    1.5380 H   0  0  0  0  0  0  0  0  0  0  0  0
   -3.0396   -0.2182    2.3040 H   0  0  0  0  0  0  0  0  0  0  0  0
   -4.0003    0.3911    0.9534 H   0  0  0  0  0  0  0  0  0  0  0  0
   -0.5983    3.0026   -0.3776 H   0  0  0  0  0  0  0  0  0  0  0  0
    1.9155    2.9625   -1.3467 H   0  0  0  0  0  0  0  0  0  0  0  0
    2.9108    2.1706   -0.1208 H   0  0  0  0  0  0  0  0  0  0  0  0
    1.7596    3.4363    0.3433 H   0  0  0  0  0  0  0  0  0  0  0  0
  1  2  1  0  0  0  0
  2  3  1  0  0  0  0
  3  4  1  0  0  0  0
  3  5  1  0  0  0  0
  3  6  1  0  0  0  0
  6  7  1  0  0  0  0
  7  8  2  0  0  0  0
  7  9  1  0  0  0  0
  9 10  2  0  0  0  0
 10 11  1  0  0  0  0
  6 12  1  0  0  0  0
 11 12  1  0  0  0  0
 12 13  2  0  0  0  0
 10 14  1  0  0  0  0
  9 15  1  0  0  0  0
  1 16  1  0  0  0  0
  1 17  1  0  0  0  0
  1 18  1  0  0  0  0
  2 19  1  0  0  0  0
  2 20  1  0  0  0  0
  5 21  1  0  0  0  0
  5 22  1  0  0  0  0
  5 23  1  0  0  0  0
 11 24  1  0  0  0  0
 14 25  1  0  0  0  0
 14 26  1  0  0  0  0
 14 27  1  0  0  0  0
M  END
