 17

C      0.579000     0.038000    -1.366000
C      0.480000     1.287000    -0.495000
C     -0.660000     1.169000     0.514000
N     -0.527000    -0.035000     1.335000
C     -0.508000    -1.244000     0.511000
C      0.637000    -1.216000    -0.499000
H      1.466000     0.095000    -2.006000
H     -0.294000    -0.015000    -2.028000
H      1.428000     1.438000     0.036000
H      0.325000     2.168000    -1.128000
H     -0.660000     2.047000     1.170000
H     -1.628000     1.163000    -0.002000
H     -1.319000    -0.086000     1.977000
H     -0.398000    -2.117000     1.164000
H     -1.469000    -1.358000    -0.005000
H      1.597000    -1.248000     0.032000
H      0.593000    -2.107000    -1.135000
