 xtb: 6.7.1 (edcfbbe)
          04112511103D

 18 17  0     0  0            999 V2000
    1.9656   -0.4356    0.8260 C   0  0  0  0  0  0  0  0  0  0  0  0
    1.5186    0.3022   -0.4322 C   0  0  0  0  0  0  0  0  0  0  0  0
    0.2505   -0.2453   -1.0956 C   0  0  0  0  0  0  0  0  0  0  0  0
   -1.0835    0.0117   -0.3579 C   0  0  0  0  0  0  0  0  0  0  0  0
   -1.8832   -0.0007   -1.1097 H   0  0  0  0  0  0  0  0  0  0  0  0
   -1.4073   -1.0543    0.6897 C   0  0  0  0  0  0  0  0  0  0  0  0
   -1.1575    1.3160    0.1900 O   0  0  0  0  0  0  0  0  0  0  0  0
    1.3025   -0.2481    1.6660 H   0  0  0  0  0  0  0  0  0  0  0  0
    2.9617   -0.1046    1.1120 H   0  0  0  0  0  0  0  0  0  0  0  0
    2.0010   -1.5075    0.6454 H   0  0  0  0  0  0  0  0  0  0  0  0
    1.3800    1.3633   -0.2146 H   0  0  0  0  0  0  0  0  0  0  0  0
    2.3207    0.2304   -1.1708 H   0  0  0  0  0  0  0  0  0  0  0  0
    0.1758    0.2259   -2.0781 H   0  0  0  0  0  0  0  0  0  0  0  0
    0.3513   -1.3202   -1.2496 H   0  0  0  0  0  0  0  0  0  0  0  0
   -2.3658   -0.8276    1.1517 H   0  0  0  0  0  0  0  0  0  0  0  0
   -1.4717   -2.0293    0.2162 H   0  0  0  0  0  0  0  0  0  0  0  0
   -0.6478   -1.0917    1.4645 H   0  0  0  0  0  0  0  0  0  0  0  0
   -0.5739    1.3573    0.9602 H   0  0  0  0  0  0  0  0  0  0  0  0
  1  2  1  0  0  0  0
  2  3  1  0  0  0  0
  3  4  1  0  0  0  0
  4  5  1  0  0  0  0
  4  6  1  0  0  0  0
  4  7  1  0  0  0  0
  1  8  1  0  0  0  0
  1  9  1  0  0  0  0
  1 10  1  0  0  0  0
  2 11  1  0  0  0  0
  2 12  1  0  0  0  0
  3 13  1  0  0  0  0
  3 14  1  0  0  0  0
  6 15  1  0  0  0  0
  6 16  1  0  0  0  0
  6 17  1  0  0  0  0
  7 18  1  0  0  0  0
M  END
