 xtb: 6.7.1 (edcfbbe)
          04112511043D

 22 22  0     0  0            999 V2000
   -2.2473    0.9268    1.3270 C   0  0  0  0  0  0  0  0  0  0  0  0
   -2.3507   -0.0325    0.1441 C   0  0  0  0  0  0  0  0  0  0  0  0
   -2.4268    0.7320   -1.1749 C   0  0  0  0  0  0  0  0  0  0  0  0
   -1.2060   -1.0541    0.1432 C   0  0  0  0  0  0  0  0  0  0  0  0
    0.1929   -0.5251    0.0254 C   0  0  0  0  0  0  0  0  0  0  0  0
    1.2710   -1.4193    0.0749 C   0  0  0  0  0  0  0  0  0  0  0  0
    2.5273   -1.0262   -0.0267 N   0  0  0  0  0  0  0  0  0  0  0  0
    2.7416    0.2772   -0.1795 C   0  0  0  0  0  0  0  0  0  0  0  0
    1.6867    1.1724   -0.2286 C   0  0  0  0  0  0  0  0  0  0  0  0
    0.4263    0.7726   -0.1279 N   0  0  0  0  0  0  0  0  0  0  0  0
   -3.1126    1.5843    1.3526 H   0  0  0  0  0  0  0  0  0  0  0  0
   -1.3522    1.5348    1.2379 H   0  0  0  0  0  0  0  0  0  0  0  0
   -2.2057    0.3768    2.2648 H   0  0  0  0  0  0  0  0  0  0  0  0
   -3.2769   -0.6103    0.2555 H   0  0  0  0  0  0  0  0  0  0  0  0
   -1.5333    1.3333   -1.3099 H   0  0  0  0  0  0  0  0  0  0  0  0
   -2.5166    0.0438   -2.0127 H   0  0  0  0  0  0  0  0  0  0  0  0
   -3.2925    1.3896   -1.1768 H   0  0  0  0  0  0  0  0  0  0  0  0
   -1.3578   -1.7541   -0.6839 H   0  0  0  0  0  0  0  0  0  0  0  0
   -1.2542   -1.6407    1.0653 H   0  0  0  0  0  0  0  0  0  0  0  0
    1.1144   -2.4821    0.1989 H   0  0  0  0  0  0  0  0  0  0  0  0
    3.7721    0.5891   -0.2604 H   0  0  0  0  0  0  0  0  0  0  0  0
    1.8381    2.2357   -0.3503 H   0  0  0  0  0  0  0  0  0  0  0  0
  1  2  1  0  0  0  0
  2  3  1  0  0  0  0
  2  4  1  0  0  0  0
  4  5  1  0  0  0  0
  5  6  4  0  0  0  0
  6  7  4  0  0  0  0
  7  8  4  0  0  0  0
  8  9  4  0  0  0  0
  5 10  4  0  0  0  0
  9 10  4  0  0  0  0
  1 11  1  0  0  0  0
  1 12  1  0  0  0  0
  1 13  1  0  0  0  0
  2 14  1  0  0  0  0
  3 15  1  0  0  0  0
  3 16  1  0  0  0  0
  3 17  1  0  0  0  0
  4 18  1  0  0  0  0
  4 19  1  0  0  0  0
  6 20  1  0  0  0  0
  8 21  1  0  0  0  0
  9 22  1  0  0  0  0
M  END
