 xtb: 6.7.1 (edcfbbe)
          04112511213D

 14 13  0     0  0            999 V2000
   -2.3859    0.3969    0.5960 C   0  0  0  0  0  0  0  0  0  0  0  0
   -1.5089    0.2645   -0.6441 C   0  0  0  0  0  0  0  0  0  0  0  0
   -0.5894   -0.9575   -0.6029 C   0  0  0  0  0  0  0  0  0  0  0  0
    0.5106   -0.8656    0.4397 C   0  0  0  0  0  0  0  0  0  0  0  0
    1.6580    0.4710    0.0613 Cl  0  0  0  0  0  0  0  0  0  0  0  0
   -3.0736    1.2307    0.4791 H   0  0  0  0  0  0  0  0  0  0  0  0
   -2.9674   -0.5091    0.7498 H   0  0  0  0  0  0  0  0  0  0  0  0
   -1.7869    0.5796    1.4842 H   0  0  0  0  0  0  0  0  0  0  0  0
   -0.9031    1.1650   -0.7622 H   0  0  0  0  0  0  0  0  0  0  0  0
   -2.1501    0.1802   -1.5234 H   0  0  0  0  0  0  0  0  0  0  0  0
   -1.1801   -1.8470   -0.3740 H   0  0  0  0  0  0  0  0  0  0  0  0
   -0.1342   -1.0963   -1.5850 H   0  0  0  0  0  0  0  0  0  0  0  0
    1.1104   -1.7733    0.4618 H   0  0  0  0  0  0  0  0  0  0  0  0
    0.1177   -0.6532    1.4312 H   0  0  0  0  0  0  0  0  0  0  0  0
  1  2  1  0  0  0  0
  2  3  1  0  0  0  0
  3  4  1  0  0  0  0
  4  5  1  0  0  0  0
  1  6  1  0  0  0  0
  1  7  1  0  0  0  0
  1  8  1  0  0  0  0
  2  9  1  0  0  0  0
  2 10  1  0  0  0  0
  3 11  1  0  0  0  0
  3 12  1  0  0  0  0
  4 13  1  0  0  0  0
  4 14  1  0  0  0  0
M  END
