 xtb: 6.7.1 (edcfbbe)
          04082510373D

 16 15  0     0  0            999 V2000
   -2.7523   -0.3642   -0.0321 C   0  0  0  0  0  0  0  0  0  0  0  0
   -1.3036   -0.4635    0.4319 C   0  0  0  0  0  0  0  0  0  0  0  0
   -0.3707    0.2813   -0.5279 C   0  0  0  0  0  0  0  0  0  0  0  0
    1.0745    0.2893   -0.0987 C   0  0  0  0  0  0  0  0  0  0  0  0
    1.7240    1.3185   -0.0693 O   0  0  0  0  0  0  0  0  0  0  0  0
    1.6660   -1.0362    0.2783 C   0  0  0  0  0  0  0  0  0  0  0  0
   -3.0695    0.6748   -0.0801 H   0  0  0  0  0  0  0  0  0  0  0  0
   -3.4065   -0.8907    0.6578 H   0  0  0  0  0  0  0  0  0  0  0  0
   -2.8676   -0.8037   -1.0200 H   0  0  0  0  0  0  0  0  0  0  0  0
   -1.0183   -1.5136    0.4895 H   0  0  0  0  0  0  0  0  0  0  0  0
   -1.2120   -0.0294    1.4296 H   0  0  0  0  0  0  0  0  0  0  0  0
   -0.4140   -0.1954   -1.5106 H   0  0  0  0  0  0  0  0  0  0  0  0
   -0.6991    1.3167   -0.6416 H   0  0  0  0  0  0  0  0  0  0  0  0
    2.7503   -0.9681    0.2917 H   0  0  0  0  0  0  0  0  0  0  0  0
    1.3414   -1.8126   -0.4071 H   0  0  0  0  0  0  0  0  0  0  0  0
    1.3226   -1.2947    1.2781 H   0  0  0  0  0  0  0  0  0  0  0  0
  1  2  1  0  0  0  0
  2  3  1  0  0  0  0
  3  4  1  0  0  0  0
  4  5  2  0  0  0  0
  4  6  1  0  0  0  0
  1  7  1  0  0  0  0
  1  8  1  0  0  0  0
  1  9  1  0  0  0  0
  2 10  1  0  0  0  0
  2 11  1  0  0  0  0
  3 12  1  0  0  0  0
  3 13  1  0  0  0  0
  6 14  1  0  0  0  0
  6 15  1  0  0  0  0
  6 16  1  0  0  0  0
M  END
