  13
 
 C         -0.0338910658       -1.0692910505        0.0002336480
 C          1.3375724504       -1.2647806597        0.0005262432
 N          2.2110496789       -0.2722056113        0.0006586200
 C          1.7563990063        0.9688597008        0.0003480059
 C          0.4070128834        1.2855800932       -0.0001195461
 C         -0.5150509180        0.2401261438       -0.0002428140
 C         -1.9655223546        0.5033892219       -0.0012843741
 O         -2.8193676402       -0.3422864218        0.0002083784
 H         -0.7286934474       -1.8945721841        0.0003197555
 H          1.7624598574       -2.2596712530        0.0010260231
 H          2.5131352402        1.7422040114        0.0002076328
 H          0.0765172712        2.3133975914       -0.0004660523
 H         -2.2223680138        1.5814479455        0.0011409421
          13
        -22.33895901
 C          0.4087245609       -1.2858074336        0.0000039783
 C          1.7598876757       -0.9760056267       -0.0002188659
 N          2.2205888554        0.2628183393       -0.0001515622
 C          1.3523685440        1.2601558466        0.0000827083
 C         -0.0201067814        1.0716906078        0.0002434191
 C         -0.5076416763       -0.2354465640        0.0002248436
 C         -1.9597773735       -0.4922059305        0.0003954894
 O         -2.8103246017        0.3569719475       -0.0005108742
 H          0.0725562069       -2.3118026408       -0.0000230581
 H          2.5125090137       -1.7534041322       -0.0004054159
 H          1.7824917500        2.2528362423        0.0001208902
 H         -0.7115286025        1.8998545690        0.0003922765
 H         -2.2198163305       -1.5696663925        0.0014131216
