 13

C      0.227000    -0.420000     0.973000
C     -0.632000    -1.322000     1.580000
N     -0.409000    -1.882000     2.791000
C      0.730000    -1.516000     3.421000
C      1.652000    -0.623000     2.900000
C      1.388000    -0.068000     1.652000
C      2.322000     0.875000     1.060000
O      2.143000     1.400000    -0.043000
H     -0.011000    -0.005000    -0.001000
H     -1.551000    -1.628000     1.093000
H      0.889000    -1.976000     4.390000
H      2.548000    -0.369000     3.456000
H      3.237000     1.123000     1.642000
