  24
 
 C         -0.3000000000       -1.4430000000        2.4940000000
 C         -1.2520000000       -0.2960000000        2.1930000000
 H         -2.2670000000       -0.6700000000        2.3790000000
 C         -1.1660000000        0.0240000000        0.6880000000
 H         -2.2110000000        0.0900000000        0.3450000000
 C         -0.4910000000       -1.2620000000        0.0250000000
 H         -1.2380000000       -1.7630000000       -0.6110000000
 C         -0.2360000000       -2.2320000000        1.1960000000
 H         -1.0770000000       -2.9360000000        1.2120000000
 Cl         1.2030000000       -3.2530000000        1.1290000000
 C          0.5870000000       -0.6140000000       -0.9250000000
 C         -0.2610000000        0.0640000000       -2.0020000000
 C         -0.8270000000        1.1430000000       -1.4470000000
 C         -0.3660000000        1.2020000000        0.0100000000
 C          1.0820000000        0.6680000000       -0.1940000000
 Cl         2.0340000000        0.4100000000        1.2780000000
 Cl         2.1260000000        1.7470000000       -1.2250000000
 Cl        -0.4800000000        2.8000000000        0.7200000000
 Cl        -1.9510000000        2.2010000000       -2.1450000000
 Cl        -0.5070000000       -0.5510000000       -3.5620000000
 Cl         1.8520000000       -1.6420000000       -1.5690000000
 Cl        -1.0470000000        1.0330000000        3.3370000000
 H         -0.6910000000       -2.0670000000        3.3070000000
 H          0.6800000000       -1.1040000000        2.8350000000
