 xtb: 6.7.1 (edcfbbe)
          04112512323D

 16 15  0     0  0            999 V2000
   -2.4552    0.1186   -0.2598 C   0  0  0  0  0  0  0  0  0  0  0  0
   -1.1930   -0.2366    0.5131 C   0  0  0  0  0  0  0  0  0  0  0  0
   -0.0096    0.1689   -0.2234 N   0  0  0  0  0  0  0  0  0  0  0  0
    1.2298   -0.2024    0.4348 C   0  0  0  0  0  0  0  0  0  0  0  0
    2.4289    0.1879   -0.4174 C   0  0  0  0  0  0  0  0  0  0  0  0
   -2.4621    1.1808   -0.4855 H   0  0  0  0  0  0  0  0  0  0  0  0
   -2.4976   -0.4354   -1.1949 H   0  0  0  0  0  0  0  0  0  0  0  0
   -3.3345   -0.1252    0.3294 H   0  0  0  0  0  0  0  0  0  0  0  0
   -1.1877   -1.3203    0.7404 H   0  0  0  0  0  0  0  0  0  0  0  0
   -1.1805    0.2974    1.4690 H   0  0  0  0  0  0  0  0  0  0  0  0
   -0.0336   -0.2500   -1.1497 H   0  0  0  0  0  0  0  0  0  0  0  0
    1.2638    0.3315    1.3902 H   0  0  0  0  0  0  0  0  0  0  0  0
    1.2698   -1.2858    0.6607 H   0  0  0  0  0  0  0  0  0  0  0  0
    2.3914    1.2498   -0.6415 H   0  0  0  0  0  0  0  0  0  0  0  0
    3.3510   -0.0309    0.1135 H   0  0  0  0  0  0  0  0  0  0  0  0
    2.4265   -0.3650   -1.3540 H   0  0  0  0  0  0  0  0  0  0  0  0
  1  2  1  0  0  0  0
  2  3  1  0  0  0  0
  3  4  1  0  0  0  0
  4  5  1  0  0  0  0
  1  6  1  0  0  0  0
  1  7  1  0  0  0  0
  1  8  1  0  0  0  0
  2  9  1  0  0  0  0
  2 10  1  0  0  0  0
  3 11  1  0  0  0  0
  4 12  1  0  0  0  0
  4 13  1  0  0  0  0
  5 14  1  0  0  0  0
  5 15  1  0  0  0  0
  5 16  1  0  0  0  0
M  END
