19
 xtb: 6.7.1 (edcfbbe)
C            1.40585180207943       -2.43813674078525        0.98022346624958
O            1.16847196579248       -1.71990342471949       -0.26866279494787
C            0.74850618594371       -0.42492127524969       -0.09593875613125
C            1.68906936608975        0.60097925632623       -0.00541229249596
C            1.28839739671920        1.92461014098364        0.08813491425995
C           -0.06349827264699        2.23269586615041        0.08248716773812
C           -1.00796472703614        1.21812141909368        0.00682161429602
C           -0.63115030910731       -0.13350001355911       -0.06444838535834
C           -1.64456257737060       -1.23716937400798       -0.08319101197570
O           -2.71144374200233       -1.17134971014417        0.49297162098352
O           -1.34260630801053       -2.34405099591617       -0.78814427737371
Cl          -2.68275735838657        1.72118935971349       -0.07609099820799
Cl           3.39143067351704        0.21324869479549       -0.04924394520832
H            0.47190669555064       -2.52237003835981        1.54494035458217
H            2.16181655574481       -1.91705782217642        1.57320283404009
H            1.76509952893528       -3.42507964815171        0.68974894798310
H            2.02429594338064        2.71802471987536        0.14852111400506
H           -0.37983847423189        3.26778147303314        0.12485975915817
H           -0.39511590101804       -2.32861175592183       -1.04019085039623
