 13

C      1.885000    -1.036000    -0.112000
C      2.921000    -1.631000     0.608000
C      2.878000    -1.652000     2.002000
C      1.800000    -1.079000     2.676000
C      0.764000    -0.484000     1.955000
C      0.807000    -0.463000     0.561000
O     -0.289000     0.076000     2.611000
F      1.764000    -1.102000     4.015000
H      1.918000    -1.020000    -1.198000
H      3.761000    -2.077000     0.084000
H      3.685000    -2.114000     2.563000
H      0.003000    -0.002000    -0.006000
H     -0.176000    -0.018000     3.570000
