  5
 
 C          0.4365129700        0.0000768607       -0.3929466567
 F          1.0370778906        1.0760444538        0.1190891888
 F          1.0371924091       -1.0759237915        0.1189308705
 Cl        -1.2846985064       -0.0000583819        0.0537238548
 H          0.5488004147        0.0001564892       -1.4870636119
           5
        -16.65321426
 C          0.4430639958        0.0000780520       -0.3924898361
 F          1.0402155294        1.0759350950        0.1234646699
 F          1.0403398696       -1.0759165195        0.1234417878
 Cl        -1.2810219673       -0.0000380206        0.0428992726
 H          0.5627606506        0.0000571056       -1.4858022972
