  5
 
 C         -0.0240000000        0.0890000000        0.0510000000
 F         -1.3430000000       -0.2240000000        0.0350000000
 F          0.4840000000       -0.4010000000        1.2080000000
 Cl         0.7910000000       -0.6400000000       -1.3290000000
 H          0.0920000000        1.1750000000        0.0330000000
