21
 xtb: 6.7.1 (edcfbbe)
C            2.18590138793015       -0.92598401794560       -0.80324138775942
C            1.59569551748968        0.37647213667316       -0.27141466723199
C            0.36338577658978        0.17670048989697        0.60187368595342
H            0.65802955795359       -0.40272923742733        1.49268017636953
C           -0.79297289257730       -0.57798731784844       -0.07517522471940
C           -1.97370587354832       -0.74234041796663        0.88557781583278
C           -1.24579388551420        0.06735082443261       -1.38486173760833
O           -0.03618666955893        1.50289203672714        1.02597630646851
H            1.51454326775792       -1.41833846201241       -1.51345596798888
H            2.38972657059067       -1.63054856648983        0.01113924162990
H            3.13068676411004       -0.73411831917169       -1.32080285274527
H            2.34702251879766        0.89930977380192        0.33250039418089
H            1.34213858121307        1.04433904122560       -1.10378306863669
H           -0.40601244224217       -1.58174445544978       -0.29628733241937
H           -2.73088096300037       -1.40455187249076        0.45361727562230
H           -1.65552675210838       -1.17280346665402        1.84206234311924
H           -2.46524580918912        0.21748726267075        1.08729750123607
H           -2.08288821526573       -0.49382092516856       -1.81315066886760
H           -0.44570325598126        0.09092277734263       -2.13116333934800
H           -1.58569222516551        1.09557452757945       -1.21799853658434
H           -0.77360585595468        1.40559957632111        1.64155235128386
