  16
 
 C         -2.5954215503        0.0368668121       -0.0009909264
 C         -1.8947342210        1.2315220786       -0.0026730356
 C         -0.5108814727        1.2337255886       -0.0022388487
 C          0.1902004346        0.0311493491       -0.0003124826
 C         -0.5253666310       -1.1649860612        0.0019302812
 C         -1.9065191724       -1.1648760089        0.0014531323
 C          1.6801029323       -0.0853759706       -0.0014055559
 O          2.2420105002       -1.1624230795        0.0000496846
 N          2.3871428064        1.0712794853        0.0015792930
 H         -3.6754277573        0.0448097484       -0.0012153521
 H         -2.4301494004        2.1699963273       -0.0041587193
 H          0.0000550671        2.1859454082       -0.0032419299
 H          0.0339120570       -2.0884725679        0.0032230934
 H         -2.4466454467       -2.0999600705        0.0029220237
 H          1.9646111488        1.9799058481       -0.0132047786
 H          3.3911962076        1.0066947581       -0.0053888206
          16
        -25.53116264
 C         -2.5821221276        0.0116130929        0.0186336585
 C         -1.8845260639        1.1886009560       -0.1976488570
 C         -0.5009964706        1.1868231096       -0.2096115295
 C          0.1957701929       -0.0009149629       -0.0096263082
 C         -0.5119994198       -1.1834458894        0.1844809669
 C         -1.8939147762       -1.1759213587        0.2063900519
 C          1.6863041993       -0.0748601688       -0.0282509700
 O          2.2913178749       -1.0605210349       -0.3936120072
 N          2.3273031901        1.0449537504        0.3939189331
 H         -3.6620800313        0.0196654993        0.0312888280
 H         -2.4210740723        2.1119752877       -0.3605962277
 H          0.0297622140        2.1075641362       -0.4062696186
 H          0.0434471710       -2.0996942466        0.3164263988
 H         -2.4359860818       -2.0964256527        0.3644669968
 H          1.8398246306        1.8148296576        0.8142146250
 H          3.3326376902        1.0284216238        0.4390397272
