  16
 
 C          1.8850000000       -1.0360000000       -0.1120000000
 C          2.9210000000       -1.6310000000        0.6080000000
 C          2.8780000000       -1.6520000000        2.0020000000
 C          1.8000000000       -1.0790000000        2.6760000000
 C          0.7640000000       -0.4840000000        1.9550000000
 C          0.8070000000       -0.4630000000        0.5610000000
 C          1.7550000000       -1.1010000000        4.1290000000
 O          0.7990000000       -0.6120000000        4.7560000000
 N          2.8130000000       -1.7060000000        4.8000000000
 H          1.9180000000       -1.0200000000       -1.1980000000
 H          3.7610000000       -2.0780000000        0.0840000000
 H          3.6910000000       -2.1180000000        2.5530000000
 H         -0.0810000000       -0.0340000000        2.4700000000
 H          0.0000000000        0.0000000000        0.0000000000
 H          3.5920000000       -2.1390000000        4.3160000000
 H          2.8320000000       -1.7680000000        5.8130000000
