 30

C     -2.025000     2.246000    -2.127000
C     -0.638000     2.276000    -1.520000
O     -0.684000     1.683000    -0.233000
P      0.672000     1.572000     0.671000
S      1.488000     3.308000     1.082000
O      0.061000     0.835000     1.997000
C     -0.971000     1.446000     2.754000
C     -1.335000     0.543000     3.913000
S      1.907000     0.099000    -0.240000
C      0.925000    -1.422000    -0.215000
S      1.839000    -2.797000    -0.963000
C      0.591000    -4.090000    -0.765000
C      1.091000    -5.411000    -1.322000
H     -2.025000     2.697000    -3.123000
H     -2.389000     1.217000    -2.205000
H     -2.735000     2.788000    -1.494000
H     -0.285000     3.307000    -1.421000
H      0.066000     1.715000    -2.142000
H     -0.615000     2.415000     3.120000
H     -1.838000     1.607000     2.106000
H     -2.130000     0.986000     4.519000
H     -1.670000    -0.434000     3.550000
H     -0.463000     0.364000     4.551000
H     -0.000000    -1.253000    -0.771000
H      0.681000    -1.666000     0.822000
H      0.353000    -4.197000     0.300000
H     -0.325000    -3.785000    -1.285000
H      0.343000    -6.203000    -1.208000
H      1.349000    -5.326000    -2.383000
H      1.992000    -5.728000    -0.786000
