  30
 
 C         -2.0250000000        2.2460000000       -2.1270000000
 C         -0.6380000000        2.2760000000       -1.5200000000
 O         -0.6840000000        1.6830000000       -0.2330000000
 P          0.6720000000        1.5720000000        0.6710000000
 S          1.4880000000        3.3080000000        1.0820000000
 O          0.0610000000        0.8350000000        1.9970000000
 C         -0.9710000000        1.4460000000        2.7540000000
 C         -1.3350000000        0.5430000000        3.9130000000
 S          1.9070000000        0.0990000000       -0.2400000000
 C          0.9250000000       -1.4220000000       -0.2150000000
 S          1.8390000000       -2.7970000000       -0.9630000000
 C          0.5910000000       -4.0900000000       -0.7650000000
 C          1.0910000000       -5.4110000000       -1.3220000000
 H         -2.0250000000        2.6970000000       -3.1230000000
 H         -2.3890000000        1.2170000000       -2.2050000000
 H         -2.7350000000        2.7880000000       -1.4940000000
 H         -0.2850000000        3.3070000000       -1.4210000000
 H          0.0660000000        1.7150000000       -2.1420000000
 H         -0.6150000000        2.4150000000        3.1200000000
 H         -1.8380000000        1.6070000000        2.1060000000
 H         -2.1300000000        0.9860000000        4.5190000000
 H         -1.6700000000       -0.4340000000        3.5500000000
 H         -0.4630000000        0.3640000000        4.5510000000
 H          0.0000000000       -1.2530000000       -0.7710000000
 H          0.6810000000       -1.6660000000        0.8220000000
 H          0.3530000000       -4.1970000000        0.3000000000
 H         -0.3250000000       -3.7850000000       -1.2850000000
 H          0.3430000000       -6.2030000000       -1.2080000000
 H          1.3490000000       -5.3260000000       -2.3830000000
 H          1.9920000000       -5.7280000000       -0.7860000000
