 xtb: 6.7.1 (edcfbbe)
          04112510523D

 12 11  0     0  0            999 V2000
    0.1529   -0.2845   -0.3706 C   0  0  0  0  0  0  0  0  0  0  0  0
   -0.0498   -0.3364   -1.4482 H   0  0  0  0  0  0  0  0  0  0  0  0
    1.5171    0.3762   -0.1350 C   0  0  0  0  0  0  0  0  0  0  0  0
    2.4918   -0.2813   -0.7670 F   0  0  0  0  0  0  0  0  0  0  0  0
    1.8428    0.4287    1.1537 F   0  0  0  0  0  0  0  0  0  0  0  0
    1.5286    1.6282   -0.5995 F   0  0  0  0  0  0  0  0  0  0  0  0
   -0.7762    0.4721    0.3245 O   0  0  0  0  0  0  0  0  0  0  0  0
   -2.0933    0.1557    0.1106 C   0  0  0  0  0  0  0  0  0  0  0  0
   -2.4555    0.4763   -1.1576 F   0  0  0  0  0  0  0  0  0  0  0  0
   -2.8191    0.9258    0.9223 F   0  0  0  0  0  0  0  0  0  0  0  0
    0.2463   -1.9644    0.2607 Cl  0  0  0  0  0  0  0  0  0  0  0  0
   -2.3436   -0.9040    0.2801 H   0  0  0  0  0  0  0  0  0  0  0  0
  1  2  1  0  0  0  0
  1  3  1  0  0  0  0
  3  4  1  0  0  0  0
  3  5  1  0  0  0  0
  3  6  1  0  0  0  0
  1  7  1  0  0  0  0
  7  8  1  0  0  0  0
  8  9  1  0  0  0  0
  8 10  1  0  0  0  0
  1 11  1  0  0  0  0
  8 12  1  0  0  0  0
M  END
