18
 xtb: 6.7.1 (edcfbbe)
C           -2.79715544544926        0.03291588728820       -0.00742899700580
C           -1.38211120556130        0.58561736467726       -0.15749795093553
C           -0.32661000548587       -0.47663333501047        0.12998616202896
C            1.11594262288161       -0.05820231450344        0.01567120201523
C            1.50836111072593        1.17548652590407       -0.31902000211412
C            2.10571618633246       -1.14922679436738        0.30932388255700
H           -3.54916416080373        0.80056420769870       -0.21634073457067
H           -2.96932676632108       -0.33635964476897        1.00986664242659
H           -2.96856996304901       -0.80059213099907       -0.69788469528906
H           -1.24566595420869        0.97442786114486       -1.17416288972076
H           -1.24488357631247        1.43437493053738        0.52373795646035
H           -0.48190315261660       -0.87943763910938        1.14252030085879
H           -0.48245597399983       -1.33588086859922       -0.54001188093300
H            2.56487440839970        1.42253167634607       -0.38727292449133
H            0.80152165076139        1.97097288265227       -0.53388699333255
H            1.95778471212242       -1.99707076722042       -0.37115124068943
H            3.13723262585245       -0.80085701174684        0.21255026457378
H            1.96155485348690       -1.53758504666439        1.32528950486197
