13
CONF11
C -2.2748837737 -0.2167145207 -0.1175268517
O -0.9311844261 -0.3123875740 0.3545212485
C -0.1043771640 0.6971405771 -0.2274908773
C 1.3102012570 0.5339255698 0.2726169262
O 1.9167755029 -0.6990079461 -0.1498118648
H -2.8490309588 -1.0087019229 0.3691026040
H -2.3220151324 -0.3530787794 -1.2075058491
H -2.7150045164 0.7581220990 0.1378073613
H -0.1320210583 0.6188668081 -1.3271312009
H -0.4716367666 1.6982985520 0.0515730194
H 1.3225045791 0.5194129891 1.3670222799
H 1.9014691554 1.3955077512 -0.0669025943
H 1.9714751116 -0.6759944906 -1.1143657545
13
CONF1
C -2.2524053464 -0.2249861660 0.1220969381
O -0.9077731866 -0.2879048302 -0.3534346617
C -0.0943344665 0.7256449049 0.2449683573
C 1.3217850332 0.5453083850 -0.2423201469
O 1.9074075327 -0.6853308263 0.2142896941
H -2.7107032889 0.7447600791 -0.1196314827
H -2.2941793447 -0.3770068445 1.2100366062
H -2.8119513495 -1.0211061569 -0.3745659069
H -0.4576541204 1.7257018346 -0.0416146194
H -0.1366146346 0.6411499520 1.3422842891
H 1.9405886258 1.3541161712 0.1571291905
H 1.3499954168 0.5983254584 -1.3399852743
H 1.3607228016 -1.4026705449 -0.1317650344
13
CONF12
C -2.2601867846 -0.2599917522 0.1670960400
O -0.9371099708 -0.2997480153 -0.3662314877
C -0.0893676818 0.6549913621 0.2769577040
C 1.3043804637 0.5331298999 -0.2753248624
O 1.8557632565 -0.7326494796 0.1276484968
H -2.2645908002 -0.5249371870 1.2341468818
H -2.8567326681 -0.9886908188 -0.3866909940
H -2.7056673153 0.7380489245 0.0468465011
H -0.4593583389 1.6760638529 0.0939037366
H -0.0844016914 0.4817353791 1.3651072691
H 1.9066922503 1.3628273122 0.1204457186
H 1.2808033115 0.6123494031 -1.3709193654
H 2.7154834355 -0.8233098594 -0.3008207333
13
CONF2
C -1.8693463722 -0.3357303364 0.4437353675
O -1.0175343524 -0.1309112885 -0.6884625502
C -0.0329896699 0.8888098225 -0.4732882048
C 1.0467831601 0.4665047005 0.5033385395
O 1.7117579269 -0.7326418768 0.0731239187
H -2.3293948257 0.6100386751 0.7624146998
H -1.3306060196 -0.7756585647 1.2924745517
H -2.6525499949 -1.0288912146 0.1280196886
H 0.4104366368 1.0804542830 -1.4560065924
H -0.5117891131 1.8129467012 -0.1130021727
H 0.6368867586 0.3345291730 1.5141082006
H 1.8058458088 1.2537447580 0.5491242724
H 1.0226874757 -1.3989731311 -0.0546826619
13
CONF14
C -1.8561314955 -0.3131549717 -0.5466495714
O -1.0712157936 -0.1789934576 0.6408333757
C -0.0513181664 0.8196938190 0.5307166788
C 1.0442367366 0.4868664526 -0.4561232505
O 1.6791033892 -0.7359892733 -0.0456392939
H -2.2259106647 0.6641636480 -0.8864274834
H -2.7067145024 -0.9504528587 -0.2938315149
H -1.2925399512 -0.7856477470 -1.3608587436
H -0.4956546797 1.7860715569 0.2451328004
H 0.3745363514 0.9153311558 1.5352212913
H 1.7603282308 1.3215257747 -0.4521662708
H 0.6445426669 0.3898084594 -1.4740914819
H 2.3339096737 -0.9605210582 -0.7179257976
13
CONF15
C -1.9153424441 -0.3040428045 0.4643058720
O -1.0263684748 -0.1890047885 -0.6493904328
C -0.0283205204 0.8216336847 -0.4670855530
C 1.0585923674 0.4444703070 0.5136031993
O 1.7390714115 -0.7205987283 0.0164378977
H -2.3961532714 0.6604400306 0.6818284730
H -1.4033760284 -0.6603271892 1.3675754116
H -2.6803659595 -1.0325861896 0.1851270115
H 0.4131295559 0.9843056585 -1.4564425997
H -0.4947105591 1.7616310146 -0.1341747531
H 0.6430871391 0.2507207807 1.5113349952
H 1.7488563095 1.2970391065 0.5929370770
H 2.3908241835 -0.9793386391 0.6791895119
13
CONF7
C -1.7888121446 -0.4381956338 -0.5828102923
O -1.0881424637 -0.0850177227 0.6119153802
C -0.0670646881 0.8935609370 0.3953791154
C 1.0968297782 0.4104858338 -0.4487495529
O 1.7308010694 -0.7589937884 0.0929006772
H -2.6498435674 -1.0388445015 -0.2795224809
H -1.1675243113 -1.0336325419 -1.2641596529
H -2.1422566300 0.4584774315 -1.1117082493
H -0.4949163940 1.7918220739 -0.0795485789
H 0.2920319159 1.1688494183 1.3938060210
H 1.8128868040 1.2404554252 -0.5399865618
H 0.7724550566 0.1394864600 -1.4576373645
H 2.0432014316 -0.5336332784 0.9794940221
13
CONF6
C -2.4204488691 -0.0031695036 0.1411166098
O -1.1692365571 0.1263774203 -0.5350586477
C -0.0719032766 -0.0760624016 0.3555494522
C 1.2088630526 0.0966786120 -0.4419122804
O 2.3582595370 -0.0709686011 0.4004847234
H -2.5359305919 -1.0097526451 0.5672494542
H -3.2076930499 0.1689880226 -0.5963518892
H -2.5107480841 0.7379466203 0.9477755817
H -0.1074308045 0.6538375412 1.1792894842
H -0.1148941607 -1.0890149308 0.7888701969
H 1.2652753310 1.1115698609 -0.8469015439
H 1.2307255301 -0.6128152776 -1.2799814793
H 2.3787993232 -0.9954275623 0.6802156132
