 17

C      0.159000     1.149000     2.526000
C     -0.163000     0.112000     1.461000
C     -0.093000     0.714000     0.057000
C     -0.411000    -0.312000    -0.993000
C      0.445000    -0.665000    -1.959000
C      0.034000    -1.679000    -2.948000
O      0.776000    -2.040000    -3.853000
H      0.106000     0.710000     3.528000
H      1.163000     1.560000     2.382000
H     -0.557000     1.975000     2.479000
H     -1.165000    -0.293000     1.647000
H      0.543000    -0.722000     1.548000
H      0.902000     1.146000    -0.110000
H     -0.814000     1.536000    -0.032000
H     -1.399000    -0.765000    -0.943000
H      1.435000    -0.234000    -2.048000
H     -0.980000    -2.097000    -2.829000
