  17
 
 C          0.1590000000        1.1490000000        2.5260000000
 C         -0.1630000000        0.1120000000        1.4610000000
 C         -0.0930000000        0.7140000000        0.0570000000
 C         -0.4110000000       -0.3120000000       -0.9930000000
 C          0.4450000000       -0.6650000000       -1.9590000000
 C          0.0340000000       -1.6790000000       -2.9480000000
 O          0.7760000000       -2.0400000000       -3.8530000000
 H          0.1060000000        0.7100000000        3.5280000000
 H          1.1630000000        1.5600000000        2.3820000000
 H         -0.5570000000        1.9750000000        2.4790000000
 H         -1.1650000000       -0.2930000000        1.6470000000
 H          0.5430000000       -0.7220000000        1.5480000000
 H          0.9020000000        1.1460000000       -0.1100000000
 H         -0.8140000000        1.5360000000       -0.0320000000
 H         -1.3990000000       -0.7650000000       -0.9430000000
 H          1.4350000000       -0.2340000000       -2.0480000000
 H         -0.9800000000       -2.0970000000       -2.8290000000
