 xtb: 6.7.1 (edcfbbe)
          04112511493D

 21 20  0     0  0            999 V2000
    1.5775   -0.3471   -1.1175 C   0  0  0  0  0  0  0  0  0  0  0  0
    1.3134   -0.1139    0.3693 C   0  0  0  0  0  0  0  0  0  0  0  0
    2.1166   -0.6212    0.9363 H   0  0  0  0  0  0  0  0  0  0  0  0
   -0.0002   -0.7088    0.9033 C   0  0  0  0  0  0  0  0  0  0  0  0
   -1.3423   -0.3469    0.2416 C   0  0  0  0  0  0  0  0  0  0  0  0
   -1.5115    1.1532    0.0187 C   0  0  0  0  0  0  0  0  0  0  0  0
   -1.6182   -1.1223   -1.0471 C   0  0  0  0  0  0  0  0  0  0  0  0
    1.3492    1.2666    0.6971 O   0  0  0  0  0  0  0  0  0  0  0  0
    1.4091   -1.3903   -1.3649 H   0  0  0  0  0  0  0  0  0  0  0  0
    0.9276    0.2772   -1.7234 H   0  0  0  0  0  0  0  0  0  0  0  0
    2.6103   -0.0982   -1.3552 H   0  0  0  0  0  0  0  0  0  0  0  0
    0.1052   -1.7955    0.8911 H   0  0  0  0  0  0  0  0  0  0  0  0
   -0.0544   -0.3937    1.9487 H   0  0  0  0  0  0  0  0  0  0  0  0
   -2.1069   -0.6592    0.9653 H   0  0  0  0  0  0  0  0  0  0  0  0
   -2.5311    1.3723   -0.2921 H   0  0  0  0  0  0  0  0  0  0  0  0
   -0.8333    1.5133   -0.7491 H   0  0  0  0  0  0  0  0  0  0  0  0
   -1.2984    1.6990    0.9339 H   0  0  0  0  0  0  0  0  0  0  0  0
   -1.4485   -2.1862   -0.8975 H   0  0  0  0  0  0  0  0  0  0  0  0
   -2.6564   -0.9818   -1.3406 H   0  0  0  0  0  0  0  0  0  0  0  0
   -0.9912   -0.7828   -1.8644 H   0  0  0  0  0  0  0  0  0  0  0  0
    2.1763    1.6461    0.3727 H   0  0  0  0  0  0  0  0  0  0  0  0
  1  2  1  0  0  0  0
  2  3  1  0  0  0  0
  2  4  1  0  0  0  0
  4  5  1  0  0  0  0
  5  6  1  0  0  0  0
  5  7  1  0  0  0  0
  2  8  1  0  0  0  0
  1  9  1  0  0  0  0
  1 10  1  0  0  0  0
  1 11  1  0  0  0  0
  4 12  1  0  0  0  0
  4 13  1  0  0  0  0
  5 14  1  0  0  0  0
  6 15  1  0  0  0  0
  6 16  1  0  0  0  0
  6 17  1  0  0  0  0
  7 18  1  0  0  0  0
  7 19  1  0  0  0  0
  7 20  1  0  0  0  0
  8 21  1  0  0  0  0
M  END
