24
 xtb: 6.7.1 (edcfbbe)
C           -2.98975999448808        0.18751626523012        0.48676251872034
C           -2.07296402344695        0.37666520003481       -0.71986811082500
C           -0.84792343682829       -0.54218566160435       -0.71131830112428
C            0.04217635811661       -0.44579587862675        0.53639325880292
C            1.30983650963247       -1.30287376278893        0.37513089699655
C            2.28065558881927       -0.43048995225300       -0.45561598677593
C            1.79526602494920        1.03347397336900       -0.26827524484872
C            0.64286822818224        0.95252092190768        0.75114956868383
H           -3.90825576065557        0.77377811296020        0.37953882094057
H           -3.27546280431396       -0.86459810652693        0.60048966444749
H           -2.50481762143407        0.50222074186473        1.41604434553830
H           -2.64149059255008        0.18438826946757       -1.63811714633743
H           -1.75447341792515        1.42486590544824       -0.77623146153029
H           -1.18778468807853       -1.58340319210305       -0.80238730234314
H           -0.24382636533207       -0.33792067227768       -1.60544427321904
H           -0.53562035555910       -0.76474263059302        1.41164381212389
H            1.73959663205564       -1.50299462072043        1.36340413569947
H            1.10374438353350       -2.27020057857712       -0.09581432550596
H            3.31349414572330       -0.56301467907278       -0.12110878620934
H            2.25193238109680       -0.71277402421062       -1.51211445844418
H            2.59579429102059        1.69506963040277        0.07546469717661
H            1.43290897294361        1.44002573968108       -1.21817093105962
H            1.04305743605850        1.01093106253439        1.77073896770760
H           -0.08238714299010        1.76441659008682        0.63822924459074
