 xtb: 6.7.1 (edcfbbe)
          04112510483D

 27 27  0     0  0            999 V2000
   -3.5175   -0.5737   -1.8108 C   0  0  0  0  0  0  0  0  0  0  0  0
   -3.0037   -1.5838   -0.7924 C   0  0  0  0  0  0  0  0  0  0  0  0
   -2.4854   -0.9877    0.5254 C   0  0  0  0  0  0  0  0  0  0  0  0
   -2.0230   -1.8122    1.0827 H   0  0  0  0  0  0  0  0  0  0  0  0
   -3.5769   -0.3916    1.4037 C   0  0  0  0  0  0  0  0  0  0  0  0
   -1.3609   -0.0630    0.2776 N   0  0  0  0  0  0  0  0  0  0  0  0
   -0.0985   -0.6608    0.2687 C   0  0  0  0  0  0  0  0  0  0  0  0
    0.0326   -1.8615    0.4421 O   0  0  0  0  0  0  0  0  0  0  0  0
    1.0136    0.2369    0.0530 C   0  0  0  0  0  0  0  0  0  0  0  0
    0.8479    1.5670   -0.1554 C   0  0  0  0  0  0  0  0  0  0  0  0
   -0.4330    2.0289   -0.1589 N   0  0  0  0  0  0  0  0  0  0  0  0
   -1.5691    1.2723    0.0240 C   0  0  0  0  0  0  0  0  0  0  0  0
   -2.6563    1.8112   -0.0432 O   0  0  0  0  0  0  0  0  0  0  0  0
    1.9187    2.5669   -0.3860 C   0  0  0  0  0  0  0  0  0  0  0  0
    2.7234   -0.5959    0.0766 Br  0  0  0  0  0  0  0  0  0  0  0  0
   -3.9420   -1.1000   -2.6617 H   0  0  0  0  0  0  0  0  0  0  0  0
   -4.2833    0.0641   -1.3798 H   0  0  0  0  0  0  0  0  0  0  0  0
   -2.7129    0.0625   -2.1739 H   0  0  0  0  0  0  0  0  0  0  0  0
   -3.8049   -2.2770   -0.5342 H   0  0  0  0  0  0  0  0  0  0  0  0
   -2.1933   -2.1656   -1.2398 H   0  0  0  0  0  0  0  0  0  0  0  0
   -4.1397    0.3784    0.8881 H   0  0  0  0  0  0  0  0  0  0  0  0
   -4.2512   -1.1911    1.6962 H   0  0  0  0  0  0  0  0  0  0  0  0
   -3.1423    0.0422    2.3012 H   0  0  0  0  0  0  0  0  0  0  0  0
   -0.6023    3.0154   -0.3314 H   0  0  0  0  0  0  0  0  0  0  0  0
    2.8996    2.1055   -0.3330 H   0  0  0  0  0  0  0  0  0  0  0  0
    1.8546    3.3547    0.3615 H   0  0  0  0  0  0  0  0  0  0  0  0
    1.7940    3.0208   -1.3672 H   0  0  0  0  0  0  0  0  0  0  0  0
  1  2  1  0  0  0  0
  2  3  1  0  0  0  0
  3  4  1  0  0  0  0
  3  5  1  0  0  0  0
  3  6  1  0  0  0  0
  6  7  1  0  0  0  0
  7  8  2  0  0  0  0
  7  9  1  0  0  0  0
  9 10  2  0  0  0  0
 10 11  1  0  0  0  0
  6 12  1  0  0  0  0
 11 12  1  0  0  0  0
 12 13  2  0  0  0  0
 10 14  1  0  0  0  0
  9 15  1  0  0  0  0
  1 16  1  0  0  0  0
  1 17  1  0  0  0  0
  1 18  1  0  0  0  0
  2 19  1  0  0  0  0
  2 20  1  0  0  0  0
  5 21  1  0  0  0  0
  5 22  1  0  0  0  0
  5 23  1  0  0  0  0
 11 24  1  0  0  0  0
 14 25  1  0  0  0  0
 14 26  1  0  0  0  0
 14 27  1  0  0  0  0
M  END
