17
 xtb: 6.7.1 (edcfbbe)
C           -2.55532368561416        0.57717800262299       -0.66817373398777
C           -1.77530898060823        0.42788586727746        0.64616472769225
C           -0.51739798947934       -0.35409815689490        0.40278594414183
O           -0.45821054003689       -1.57424232108955        0.36181073074512
O            0.54384696051036        0.44126625027040        0.18073514477533
C            1.80354098558503       -0.22936468758414       -0.14591216752454
C            2.83432046772899        0.84616662724718       -0.37484194075217
H           -3.48583399848336        1.12117129344465       -0.48637980478990
H           -1.97173818232954        1.13258061466462       -1.40815836670228
H           -2.80556968968705       -0.40235091439658       -1.08594977749195
H           -2.37369600796083       -0.12252589294554        1.37690957822691
H           -1.52953682285448        1.41094433428014        1.05491434019344
H            2.07087089448288       -0.88278154290971        0.69032076570537
H            1.64471734073377       -0.84243888931366       -1.03826859384638
H            2.96933359510880        1.45933583171873        0.52096044891095
H            3.79210661425228        0.37621890052670       -0.61650129277370
H            2.54938454854613        1.49341456002282       -1.20963953101591
