 xtb: 6.7.1 (edcfbbe)
          04112512063D

 22 22  0     0  0            999 V2000
   -2.1992   -0.7802    1.3048 C   0  0  0  0  0  0  0  0  0  0  0  0
   -2.2902   -0.1157   -0.0663 C   0  0  0  0  0  0  0  0  0  0  0  0
   -2.2540    1.4036    0.0668 C   0  0  0  0  0  0  0  0  0  0  0  0
   -1.1832   -0.6172   -1.0186 C   0  0  0  0  0  0  0  0  0  0  0  0
    0.1927   -0.2935   -0.5332 C   0  0  0  0  0  0  0  0  0  0  0  0
    0.9018   -1.1424    0.3212 C   0  0  0  0  0  0  0  0  0  0  0  0
    2.1040   -0.8398    0.7829 N   0  0  0  0  0  0  0  0  0  0  0  0
    2.6276    0.3157    0.3910 C   0  0  0  0  0  0  0  0  0  0  0  0
    1.9464    1.1538   -0.4791 C   0  0  0  0  0  0  0  0  0  0  0  0
    0.7406    0.8509   -0.9360 N   0  0  0  0  0  0  0  0  0  0  0  0
   -2.2263   -1.8634    1.2127 H   0  0  0  0  0  0  0  0  0  0  0  0
   -3.0356   -0.4692    1.9259 H   0  0  0  0  0  0  0  0  0  0  0  0
   -1.2781   -0.4979    1.8112 H   0  0  0  0  0  0  0  0  0  0  0  0
   -3.2451   -0.3993   -0.5216 H   0  0  0  0  0  0  0  0  0  0  0  0
   -3.0781    1.7469    0.6873 H   0  0  0  0  0  0  0  0  0  0  0  0
   -1.3219    1.7273    0.5249 H   0  0  0  0  0  0  0  0  0  0  0  0
   -2.3333    1.8758   -0.9085 H   0  0  0  0  0  0  0  0  0  0  0  0
   -1.3229   -0.1408   -1.9892 H   0  0  0  0  0  0  0  0  0  0  0  0
   -1.2788   -1.6981   -1.1304 H   0  0  0  0  0  0  0  0  0  0  0  0
    0.4976   -2.0930    0.6396 H   0  0  0  0  0  0  0  0  0  0  0  0
    3.6061    0.5568    0.7795 H   0  0  0  0  0  0  0  0  0  0  0  0
    2.3673    2.0875   -0.8244 H   0  0  0  0  0  0  0  0  0  0  0  0
  1  2  1  0  0  0  0
  2  3  1  0  0  0  0
  2  4  1  0  0  0  0
  4  5  1  0  0  0  0
  5  6  4  0  0  0  0
  6  7  4  0  0  0  0
  7  8  4  0  0  0  0
  8  9  4  0  0  0  0
  5 10  4  0  0  0  0
  9 10  4  0  0  0  0
  1 11  1  0  0  0  0
  1 12  1  0  0  0  0
  1 13  1  0  0  0  0
  2 14  1  0  0  0  0
  3 15  1  0  0  0  0
  3 16  1  0  0  0  0
  3 17  1  0  0  0  0
  4 18  1  0  0  0  0
  4 19  1  0  0  0  0
  6 20  1  0  0  0  0
  8 21  1  0  0  0  0
  9 22  1  0  0  0  0
M  END
