 xtb: 6.7.1 (edcfbbe)
          04112512153D

 21 20  0     0  0            999 V2000
    1.8538   -1.0502    0.3910 C   0  0  0  0  0  0  0  0  0  0  0  0
    1.2820    0.2915    0.8334 C   0  0  0  0  0  0  0  0  0  0  0  0
    0.1717    0.8681   -0.0575 C   0  0  0  0  0  0  0  0  0  0  0  0
   -0.0424    1.8751    0.3470 H   0  0  0  0  0  0  0  0  0  0  0  0
   -1.1845    0.1224   -0.0892 C   0  0  0  0  0  0  0  0  0  0  0  0
   -1.1431   -1.2075   -0.8419 C   0  0  0  0  0  0  0  0  0  0  0  0
   -1.7591   -0.0609    1.3125 C   0  0  0  0  0  0  0  0  0  0  0  0
    0.7081    1.0105   -1.3632 O   0  0  0  0  0  0  0  0  0  0  0  0
    1.1723   -1.8665    0.6058 H   0  0  0  0  0  0  0  0  0  0  0  0
    2.7860   -1.2398    0.9180 H   0  0  0  0  0  0  0  0  0  0  0  0
    2.0572   -1.0303   -0.6759 H   0  0  0  0  0  0  0  0  0  0  0  0
    0.9133    0.2293    1.8567 H   0  0  0  0  0  0  0  0  0  0  0  0
    2.0899    1.0271    0.8148 H   0  0  0  0  0  0  0  0  0  0  0  0
   -1.8619    0.7880   -0.6421 H   0  0  0  0  0  0  0  0  0  0  0  0
   -0.4935   -1.1316   -1.7100 H   0  0  0  0  0  0  0  0  0  0  0  0
   -0.7782   -2.0078   -0.2060 H   0  0  0  0  0  0  0  0  0  0  0  0
   -2.1427   -1.4742   -1.1773 H   0  0  0  0  0  0  0  0  0  0  0  0
   -1.7751    0.8850    1.8496 H   0  0  0  0  0  0  0  0  0  0  0  0
   -1.1695   -0.7745    1.8817 H   0  0  0  0  0  0  0  0  0  0  0  0
   -2.7768   -0.4376    1.2463 H   0  0  0  0  0  0  0  0  0  0  0  0
    0.0660    1.4692   -1.9204 H   0  0  0  0  0  0  0  0  0  0  0  0
  1  2  1  0  0  0  0
  2  3  1  0  0  0  0
  3  4  1  0  0  0  0
  3  5  1  0  0  0  0
  5  6  1  0  0  0  0
  5  7  1  0  0  0  0
  3  8  1  0  0  0  0
  1  9  1  0  0  0  0
  1 10  1  0  0  0  0
  1 11  1  0  0  0  0
  2 12  1  0  0  0  0
  2 13  1  0  0  0  0
  5 14  1  0  0  0  0
  6 15  1  0  0  0  0
  6 16  1  0  0  0  0
  6 17  1  0  0  0  0
  7 18  1  0  0  0  0
  7 19  1  0  0  0  0
  7 20  1  0  0  0  0
  8 21  1  0  0  0  0
M  END
