 xtb: 6.7.1 (edcfbbe)
          04072510393D

 16 15  0     0  0            999 V2000
    2.3469    0.3079    0.1218 C   0  0  0  0  0  0  0  0  0  0  0  0
    0.8830    0.7280    0.0824 C   0  0  0  0  0  0  0  0  0  0  0  0
   -0.0495   -0.4374   -0.1215 C   0  0  0  0  0  0  0  0  0  0  0  0
    0.3338   -1.5919   -0.0974 O   0  0  0  0  0  0  0  0  0  0  0  0
   -1.4977   -0.1055   -0.3953 C   0  0  0  0  0  0  0  0  0  0  0  0
   -2.0575    1.0856    0.3760 C   0  0  0  0  0  0  0  0  0  0  0  0
    2.9841    1.1682    0.3052 H   0  0  0  0  0  0  0  0  0  0  0  0
    2.5060   -0.4251    0.9091 H   0  0  0  0  0  0  0  0  0  0  0  0
    2.6346   -0.1503   -0.8216 H   0  0  0  0  0  0  0  0  0  0  0  0
    0.6074    1.2040    1.0259 H   0  0  0  0  0  0  0  0  0  0  0  0
    0.7109    1.4533   -0.7141 H   0  0  0  0  0  0  0  0  0  0  0  0
   -2.0871   -1.0028   -0.1951 H   0  0  0  0  0  0  0  0  0  0  0  0
   -1.5652    0.0925   -1.4691 H   0  0  0  0  0  0  0  0  0  0  0  0
   -1.5605    2.0094    0.0968 H   0  0  0  0  0  0  0  0  0  0  0  0
   -1.9455    0.9342    1.4467 H   0  0  0  0  0  0  0  0  0  0  0  0
   -3.1168    1.1898    0.1570 H   0  0  0  0  0  0  0  0  0  0  0  0
  1  2  1  0  0  0  0
  2  3  1  0  0  0  0
  3  4  2  0  0  0  0
  3  5  1  0  0  0  0
  5  6  1  0  0  0  0
  1  7  1  0  0  0  0
  1  8  1  0  0  0  0
  1  9  1  0  0  0  0
  2 10  1  0  0  0  0
  2 11  1  0  0  0  0
  5 12  1  0  0  0  0
  5 13  1  0  0  0  0
  6 14  1  0  0  0  0
  6 15  1  0  0  0  0
  6 16  1  0  0  0  0
M  END
