 xtb: 6.7.1 (edcfbbe)
          04112511443D

 25 25  0     0  0            999 V2000
    3.3996   -0.9819   -0.2534 C   0  0  0  0  0  0  0  0  0  0  0  0
    2.5858    0.1468    0.3054 C   0  0  0  0  0  0  0  0  0  0  0  0
    3.1409    1.0241    1.1294 C   0  0  0  0  0  0  0  0  0  0  0  0
    1.1378    0.2727   -0.1385 C   0  0  0  0  0  0  0  0  0  0  0  0
    1.0995    1.0598   -0.9023 H   0  0  0  0  0  0  0  0  0  0  0  0
    0.5590   -1.0006   -0.7628 C   0  0  0  0  0  0  0  0  0  0  0  0
   -0.8217   -0.7196   -1.3525 C   0  0  0  0  0  0  0  0  0  0  0  0
   -1.7152   -0.0752   -0.3335 C   0  0  0  0  0  0  0  0  0  0  0  0
   -1.2114    0.5496    0.7432 C   0  0  0  0  0  0  0  0  0  0  0  0
    0.2350    0.6991    1.0296 C   0  0  0  0  0  0  0  0  0  0  0  0
   -3.1520   -0.1450   -0.5266 C   0  0  0  0  0  0  0  0  0  0  0  0
   -3.9972    0.3412    0.2051 O   0  0  0  0  0  0  0  0  0  0  0  0
    3.4341   -0.9266   -1.3401 H   0  0  0  0  0  0  0  0  0  0  0  0
    4.4172   -0.9334    0.1245 H   0  0  0  0  0  0  0  0  0  0  0  0
    2.9728   -1.9431    0.0248 H   0  0  0  0  0  0  0  0  0  0  0  0
    2.6094    1.8625    1.5427 H   0  0  0  0  0  0  0  0  0  0  0  0
    4.1737    0.9401    1.4226 H   0  0  0  0  0  0  0  0  0  0  0  0
    1.2056   -1.3720   -1.5556 H   0  0  0  0  0  0  0  0  0  0  0  0
    0.4709   -1.7721    0.0042 H   0  0  0  0  0  0  0  0  0  0  0  0
   -0.7281   -0.0570   -2.2177 H   0  0  0  0  0  0  0  0  0  0  0  0
   -1.2759   -1.6490   -1.7019 H   0  0  0  0  0  0  0  0  0  0  0  0
   -1.9014    0.9733    1.4618 H   0  0  0  0  0  0  0  0  0  0  0  0
    0.4217    1.7391    1.3030 H   0  0  0  0  0  0  0  0  0  0  0  0
    0.4722    0.0995    1.9147 H   0  0  0  0  0  0  0  0  0  0  0  0
   -3.4689   -0.6953   -1.4326 H   0  0  0  0  0  0  0  0  0  0  0  0
  1  2  1  0  0  0  0
  2  3  2  0  0  0  0
  2  4  1  0  0  0  0
  4  5  1  0  0  0  0
  4  6  1  0  0  0  0
  6  7  1  0  0  0  0
  7  8  1  0  0  0  0
  8  9  2  0  0  0  0
  4 10  1  0  0  0  0
  9 10  1  0  0  0  0
  8 11  1  0  0  0  0
 11 12  2  0  0  0  0
  1 13  1  0  0  0  0
  1 14  1  0  0  0  0
  1 15  1  0  0  0  0
  3 16  1  0  0  0  0
  3 17  1  0  0  0  0
  6 18  1  0  0  0  0
  6 19  1  0  0  0  0
  7 20  1  0  0  0  0
  7 21  1  0  0  0  0
  9 22  1  0  0  0  0
 10 23  1  0  0  0  0
 10 24  1  0  0  0  0
 11 25  1  0  0  0  0
M  END
