 xtb: 6.7.1 (edcfbbe)
          04112512423D

 17 16  0     0  0            999 V2000
   -2.5991    0.6674   -0.4976 C   0  0  0  0  0  0  0  0  0  0  0  0
   -1.7368    0.2097    0.6826 C   0  0  0  0  0  0  0  0  0  0  0  0
   -0.4285   -0.3272    0.1623 C   0  0  0  0  0  0  0  0  0  0  0  0
   -0.1909   -1.5010   -0.0352 O   0  0  0  0  0  0  0  0  0  0  0  0
    0.4273    0.6519   -0.0983 O   0  0  0  0  0  0  0  0  0  0  0  0
    1.7153    0.3140   -0.6388 C   0  0  0  0  0  0  0  0  0  0  0  0
    2.7126    0.0146    0.4699 C   0  0  0  0  0  0  0  0  0  0  0  0
   -2.7847   -0.1637   -1.1739 H   0  0  0  0  0  0  0  0  0  0  0  0
   -3.5511    1.0406   -0.1326 H   0  0  0  0  0  0  0  0  0  0  0  0
   -2.0961    1.4599   -1.0457 H   0  0  0  0  0  0  0  0  0  0  0  0
   -2.2421   -0.5840    1.2315 H   0  0  0  0  0  0  0  0  0  0  0  0
   -1.5341    1.0536    1.3404 H   0  0  0  0  0  0  0  0  0  0  0  0
    1.6011   -0.5518   -1.2982 H   0  0  0  0  0  0  0  0  0  0  0  0
    2.0122    1.1922   -1.2130 H   0  0  0  0  0  0  0  0  0  0  0  0
    2.7770    0.8573    1.1528 H   0  0  0  0  0  0  0  0  0  0  0  0
    2.3996   -0.8677    1.0239 H   0  0  0  0  0  0  0  0  0  0  0  0
    3.6892   -0.1706    0.0349 H   0  0  0  0  0  0  0  0  0  0  0  0
  1  2  1  0  0  0  0
  2  3  1  0  0  0  0
  3  4  2  0  0  0  0
  3  5  1  0  0  0  0
  5  6  1  0  0  0  0
  6  7  1  0  0  0  0
  1  8  1  0  0  0  0
  1  9  1  0  0  0  0
  1 10  1  0  0  0  0
  2 11  1  0  0  0  0
  2 12  1  0  0  0  0
  6 13  1  0  0  0  0
  6 14  1  0  0  0  0
  7 15  1  0  0  0  0
  7 16  1  0  0  0  0
  7 17  1  0  0  0  0
M  END
