  25
 
 C          2.5244713798        3.9365200977        0.0054625268
 C          2.1464623665        2.4655674770        0.0006752832
 N          0.7098985216        2.3140807984        0.0017102224
 C          0.1056447795        1.1251770641        0.0009853735
 N          0.8582679230        0.0270739137       -0.0000480822
 C          0.1812788501       -1.1192907419       -0.0011448614
 N         -1.1631037550       -1.2183900255       -0.0016292077
 C         -1.7793056088       -0.0618235742       -0.0003071556
 N         -1.2424565116        1.1335883849        0.0012564344
 Cl        -3.4877994380       -0.1195186857       -0.0002651833
 N          0.8646084604       -2.2644386787       -0.0019245964
 C          2.3083415310       -2.3180163966       -0.0003327318
 C          2.7849437805       -3.7599803620       -0.0037802344
 H          3.6057167744        4.0415603240        0.0007008960
 H          2.1257592957        4.4355516642       -0.8747954164
 H          2.1342107962        4.4279871012        0.8937195624
 H          2.5562711493        1.9578099433        0.8809374321
 H          2.5545286866        1.9644023656       -0.8842399544
 H          0.1169171226        3.1276920773        0.0029065000
 H          0.3290536931       -3.1169128372       -0.0028321882
 H          2.6830073702       -1.7843269809       -0.8808984145
 H          2.6810554768       -1.7895205491        0.8842527423
 H          3.8708118230       -3.7919081746        0.0010723350
 H          2.4208071007       -4.2840228245        0.8769228312
 H          2.4288416236       -4.2774651672       -0.8916218634
          25
        -40.34465869
 C          2.5875130281        3.1352782313       -0.8546635047
 C          2.1856524680        2.4348537732        0.4408590324
 N          0.7598928715        2.2456012093        0.5302960336
 C          0.1355889333        1.0995622194        0.2408369121
 N          0.8523265957        0.0039782571        0.0019761293
 C          0.1438027542       -1.0968614199       -0.2379245055
 N         -1.2024977889       -1.1533306630       -0.2448302353
 C         -1.7856325427       -0.0056075926        0.0003161135
 N         -1.2111550762        1.1463095741        0.2459982376
 Cl        -3.4938401595       -0.0117066376       -0.0014192401
 N          0.7769632722       -2.2382487235       -0.5258383850
 C          2.2044203211       -2.4161813961       -0.4398006765
 C          2.6134632146       -3.1275592831        0.8474549770
 H          2.2740606624        2.5436772824       -1.7108709495
 H          2.1215779907        4.1160086854       -0.9200022185
 H          3.6661223523        3.2600533075       -0.8914533348
 H          2.5130788352        3.0240147497        1.3028934350
 H          2.6380561582        1.4437166356        0.4901004374
 H          0.1623796120        3.0529977310        0.6196818767
 H          0.1860908526       -3.0500614972       -0.6189565341
 H          2.5364865537       -2.9929863987       -1.3085313755
 H          2.6480424302       -1.4205887564       -0.4784459024
 H          2.2946303130       -2.5489673975        1.7105918186
 H          2.1570198321       -4.1134949800        0.9015246582
 H          3.6932470234       -3.2423397222        0.8825656438
