 xtb: 6.7.1 (edcfbbe)
          04072510353D

 16 15  0     0  0            999 V2000
    2.1716    0.6928    0.3402 C   0  0  0  0  0  0  0  0  0  0  0  0
    1.0801    0.3549   -0.6821 C   0  0  0  0  0  0  0  0  0  0  0  0
   -0.0001   -0.4453   -0.0001 C   0  0  0  0  0  0  0  0  0  0  0  0
    0.0002   -1.6612   -0.0004 O   0  0  0  0  0  0  0  0  0  0  0  0
   -1.0805    0.3540    0.6824 C   0  0  0  0  0  0  0  0  0  0  0  0
   -2.1714    0.6935   -0.3400 C   0  0  0  0  0  0  0  0  0  0  0  0
    1.7722    1.3031    1.1459 H   0  0  0  0  0  0  0  0  0  0  0  0
    2.5802   -0.2201    0.7674 H   0  0  0  0  0  0  0  0  0  0  0  0
    2.9738    1.2393   -0.1469 H   0  0  0  0  0  0  0  0  0  0  0  0
    0.6642    1.2748   -1.0906 H   0  0  0  0  0  0  0  0  0  0  0  0
    1.5129   -0.2437   -1.4846 H   0  0  0  0  0  0  0  0  0  0  0  0
   -0.6647    1.2733    1.0923 H   0  0  0  0  0  0  0  0  0  0  0  0
   -1.5137   -0.2456    1.4839 H   0  0  0  0  0  0  0  0  0  0  0  0
   -1.7716    1.3050   -1.1446 H   0  0  0  0  0  0  0  0  0  0  0  0
   -2.9739    1.2393    0.1475 H   0  0  0  0  0  0  0  0  0  0  0  0
   -2.5798   -0.2187   -0.7687 H   0  0  0  0  0  0  0  0  0  0  0  0
  1  2  1  0  0  0  0
  2  3  1  0  0  0  0
  3  4  2  0  0  0  0
  3  5  1  0  0  0  0
  5  6  1  0  0  0  0
  1  7  1  0  0  0  0
  1  8  1  0  0  0  0
  1  9  1  0  0  0  0
  2 10  1  0  0  0  0
  2 11  1  0  0  0  0
  5 12  1  0  0  0  0
  5 13  1  0  0  0  0
  6 14  1  0  0  0  0
  6 15  1  0  0  0  0
  6 16  1  0  0  0  0
M  END
