 xtb: 6.7.1 (edcfbbe)
          04112511193D

 14 13  0     0  0            999 V2000
   -1.4486    0.0758    0.6263 C   0  0  0  0  0  0  0  0  0  0  0  0
    0.0647    0.3113    0.5460 C   0  0  0  0  0  0  0  0  0  0  0  0
    0.7952   -0.9443    0.0596 C   0  0  0  0  0  0  0  0  0  0  0  0
    2.1672   -0.6245   -0.0526 O   0  0  0  0  0  0  0  0  0  0  0  0
    0.2736    1.3895   -0.3428 O   0  0  0  0  0  0  0  0  0  0  0  0
   -1.9981   -0.2397   -0.6286 O   0  0  0  0  0  0  0  0  0  0  0  0
   -1.9200    0.9786    1.0344 H   0  0  0  0  0  0  0  0  0  0  0  0
   -1.6624   -0.7693    1.2819 H   0  0  0  0  0  0  0  0  0  0  0  0
    0.4420    0.5755    1.5454 H   0  0  0  0  0  0  0  0  0  0  0  0
    0.3810   -1.2432   -0.9106 H   0  0  0  0  0  0  0  0  0  0  0  0
    0.6356   -1.7515    0.7834 H   0  0  0  0  0  0  0  0  0  0  0  0
    2.6519   -1.3934   -0.3798 H   0  0  0  0  0  0  0  0  0  0  0  0
    1.2206    1.4293   -0.5429 H   0  0  0  0  0  0  0  0  0  0  0  0
   -1.7605    0.4767   -1.2373 H   0  0  0  0  0  0  0  0  0  0  0  0
  1  2  1  0  0  0  0
  2  3  1  0  0  0  0
  3  4  1  0  0  0  0
  2  5  1  0  0  0  0
  1  6  1  0  0  0  0
  1  7  1  0  0  0  0
  1  8  1  0  0  0  0
  2  9  1  0  0  0  0
  3 10  1  0  0  0  0
  3 11  1  0  0  0  0
  4 12  1  0  0  0  0
  5 13  1  0  0  0  0
  6 14  1  0  0  0  0
M  END
