  12
 
 C          4.0770000000       -1.5620000000        0.7360000000
 C          2.9340000000       -1.8740000000       -0.2180000000
 C          1.9490000000       -0.7460000000       -0.2810000000
 C          0.8850000000       -0.6360000000        0.5220000000
 H          4.7830000000       -2.3970000000        0.7660000000
 H          3.7080000000       -1.3930000000        1.7530000000
 H          4.6250000000       -0.6680000000        0.4180000000
 H          2.4470000000       -2.8050000000        0.0960000000
 H          3.3360000000       -2.0470000000       -1.2230000000
 H          2.1130000000        0.0190000000       -1.0360000000
 H          0.1970000000        0.1980000000        0.4410000000
 H          0.6870000000       -1.3890000000        1.2770000000
