19
 xtb: 6.7.1 (edcfbbe)
C            1.18794061184217       -2.52498299565479        1.01836374868653
O            0.98300290651535       -1.82989960079553       -0.24286131339018
C            0.65698969968741       -0.50815350163133       -0.09416154246968
C            1.62412624607146        0.48826845464906        0.06349833369039
C            1.25972257826281        1.82459462406120        0.16732300222626
C           -0.08003859556052        2.18876857269684        0.11041973242693
C           -1.04083451663381        1.20148497375753       -0.05478728538140
C           -0.68916213635467       -0.14056736840499       -0.15534927468083
C           -1.71729397820813       -1.22007064878519       -0.29964939735949
O           -2.31040599018426       -1.71006585646147        0.63899724828586
O           -1.89616030764408       -1.57234679134692       -1.57840568499148
Cl          -2.73432615080259        1.64716333318874       -0.15160274430873
Cl           3.31430219747787        0.04594387633263        0.09343971242243
H            1.48723353657881       -3.53952185315528        0.75401266030537
H            0.25465162410628       -2.54356597417310        1.59045326924128
H            1.97728641846709       -2.04293989101013        1.60275699414767
H            2.02018986941038        2.58783524545930        0.28654844255442
H           -0.36465865807757        3.23141646834615        0.18409511894363
H           -2.56820946968260       -2.27813252729945       -1.62021416521681
