 xtb: 6.7.1 (edcfbbe)
          04112511233D

 26 25  0     0  0            999 V2000
   -1.6355    0.0788    1.5416 C   0  0  0  0  0  0  0  0  0  0  0  0
   -1.3152   -0.4656    0.1506 C   0  0  0  0  0  0  0  0  0  0  0  0
   -2.5293   -0.2536   -0.7573 C   0  0  0  0  0  0  0  0  0  0  0  0
   -0.0421    0.1216   -0.5057 C   0  0  0  0  0  0  0  0  0  0  0  0
    0.0531    1.6388   -0.3579 C   0  0  0  0  0  0  0  0  0  0  0  0
    1.2582   -0.6012   -0.0744 C   0  0  0  0  0  0  0  0  0  0  0  0
    2.2743   -0.5884   -1.2194 C   0  0  0  0  0  0  0  0  0  0  0  0
    1.9253   -0.0408    1.1811 C   0  0  0  0  0  0  0  0  0  0  0  0
   -1.8789    1.1367    1.4982 H   0  0  0  0  0  0  0  0  0  0  0  0
   -2.4968   -0.4482    1.9474 H   0  0  0  0  0  0  0  0  0  0  0  0
   -0.8055   -0.0627    2.2266 H   0  0  0  0  0  0  0  0  0  0  0  0
   -1.1622   -1.5480    0.2421 H   0  0  0  0  0  0  0  0  0  0  0  0
   -2.3654   -0.7018   -1.7347 H   0  0  0  0  0  0  0  0  0  0  0  0
   -2.7297    0.8063   -0.8937 H   0  0  0  0  0  0  0  0  0  0  0  0
   -3.4127   -0.7105   -0.3170 H   0  0  0  0  0  0  0  0  0  0  0  0
   -0.1490   -0.0882   -1.5773 H   0  0  0  0  0  0  0  0  0  0  0  0
    0.9098    2.0157   -0.9114 H   0  0  0  0  0  0  0  0  0  0  0  0
    0.1584    1.9333    0.6812 H   0  0  0  0  0  0  0  0  0  0  0  0
   -0.8379    2.1125   -0.7625 H   0  0  0  0  0  0  0  0  0  0  0  0
    1.0001   -1.6486    0.1230 H   0  0  0  0  0  0  0  0  0  0  0  0
    1.8670   -1.0716   -2.1048 H   0  0  0  0  0  0  0  0  0  0  0  0
    2.5477    0.4316   -1.4792 H   0  0  0  0  0  0  0  0  0  0  0  0
    3.1787   -1.1177   -0.9281 H   0  0  0  0  0  0  0  0  0  0  0  0
    2.7656   -0.6747    1.4573 H   0  0  0  0  0  0  0  0  0  0  0  0
    1.2394   -0.0109    2.0218 H   0  0  0  0  0  0  0  0  0  0  0  0
    2.3048    0.9618    1.0043 H   0  0  0  0  0  0  0  0  0  0  0  0
  1  2  1  0  0  0  0
  2  3  1  0  0  0  0
  2  4  1  0  0  0  0
  4  5  1  0  0  0  0
  4  6  1  0  0  0  0
  6  7  1  0  0  0  0
  6  8  1  0  0  0  0
  1  9  1  0  0  0  0
  1 10  1  0  0  0  0
  1 11  1  0  0  0  0
  2 12  1  0  0  0  0
  3 13  1  0  0  0  0
  3 14  1  0  0  0  0
  3 15  1  0  0  0  0
  4 16  1  0  0  0  0
  5 17  1  0  0  0  0
  5 18  1  0  0  0  0
  5 19  1  0  0  0  0
  6 20  1  0  0  0  0
  7 21  1  0  0  0  0
  7 22  1  0  0  0  0
  7 23  1  0  0  0  0
  8 24  1  0  0  0  0
  8 25  1  0  0  0  0
  8 26  1  0  0  0  0
M  END
