 xtb: 6.7.1 (edcfbbe)
          04112512203D

 18 17  0     0  0            999 V2000
   -1.6254    1.0486   -0.5395 C   0  0  0  0  0  0  0  0  0  0  0  0
   -1.0879    0.4847    0.7748 C   0  0  0  0  0  0  0  0  0  0  0  0
   -0.0493   -0.6438    0.6347 C   0  0  0  0  0  0  0  0  0  0  0  0
   -0.0406   -1.1961    1.5816 H   0  0  0  0  0  0  0  0  0  0  0  0
   -0.3905   -1.6220   -0.4870 C   0  0  0  0  0  0  0  0  0  0  0  0
    1.3861   -0.1116    0.4682 C   0  0  0  0  0  0  0  0  0  0  0  0
    1.6042    0.6843   -0.6766 O   0  0  0  0  0  0  0  0  0  0  0  0
   -2.2159    1.9404   -0.3405 H   0  0  0  0  0  0  0  0  0  0  0  0
   -0.8256    1.3101   -1.2256 H   0  0  0  0  0  0  0  0  0  0  0  0
   -2.2671    0.3238   -1.0330 H   0  0  0  0  0  0  0  0  0  0  0  0
   -1.9348    0.1008    1.3483 H   0  0  0  0  0  0  0  0  0  0  0  0
   -0.6433    1.2909    1.3643 H   0  0  0  0  0  0  0  0  0  0  0  0
   -0.2426   -1.1535   -1.4562 H   0  0  0  0  0  0  0  0  0  0  0  0
   -1.4219   -1.9541   -0.4045 H   0  0  0  0  0  0  0  0  0  0  0  0
    0.2582   -2.4930   -0.4299 H   0  0  0  0  0  0  0  0  0  0  0  0
    2.0678   -0.9600    0.3606 H   0  0  0  0  0  0  0  0  0  0  0  0
    1.6736    0.4435    1.3714 H   0  0  0  0  0  0  0  0  0  0  0  0
    1.1844    1.5438   -0.5392 H   0  0  0  0  0  0  0  0  0  0  0  0
  1  2  1  0  0  0  0
  2  3  1  0  0  0  0
  3  4  1  0  0  0  0
  3  5  1  0  0  0  0
  3  6  1  0  0  0  0
  6  7  1  0  0  0  0
  1  8  1  0  0  0  0
  1  9  1  0  0  0  0
  1 10  1  0  0  0  0
  2 11  1  0  0  0  0
  2 12  1  0  0  0  0
  5 13  1  0  0  0  0
  5 14  1  0  0  0  0
  5 15  1  0  0  0  0
  6 16  1  0  0  0  0
  6 17  1  0  0  0  0
  7 18  1  0  0  0  0
M  END
