19
 xtb: 6.7.1 (edcfbbe)
C            1.42024105830378       -2.44445019167696       -0.93284338251539
O            1.02738295619963       -1.76206052979979        0.28974721275584
C            0.70557554738977       -0.44318993502508        0.11231346965290
C            1.66925880279207        0.56829380457407        0.07516680666375
C            1.29817631044401        1.90150473095884       -0.04505382582602
C           -0.04492525096060        2.24842385841675       -0.12309016826554
C           -1.00386156035527        1.24683259440265       -0.07005084886263
C           -0.64478033531497       -0.09262324253788        0.04126620588867
C           -1.66169274722507       -1.19159388578934        0.06161819512462
O           -1.96642126946002       -1.84054989078573       -0.91738175120989
O           -2.18531461043655       -1.36529719313293        1.28314472318223
Cl          -2.70300552295731        1.66874239549383       -0.16637345187071
Cl           3.35896401732749        0.15014346958973        0.22388308441777
H            2.27883234998641       -1.94935862073371       -1.39558644956934
H            0.57860782748869       -2.46940358329703       -1.63167379263297
H            1.69241702035799       -3.45684422017732       -0.63316589935730
H            2.05640951807326        2.67580546552853       -0.07061799103202
H           -0.33529053234522        3.28805335940313       -0.21475023252980
H           -2.84947703509343       -2.07873778721521        1.24402003280934
