 xtb: 6.7.1 (edcfbbe)
          04112512383D

 25 25  0     0  0            999 V2000
    3.0382   -0.9566    0.9666 C   0  0  0  0  0  0  0  0  0  0  0  0
    2.5974    0.0966   -0.0037 C   0  0  0  0  0  0  0  0  0  0  0  0
    3.4680    0.8657   -0.6396 C   0  0  0  0  0  0  0  0  0  0  0  0
    1.1130    0.2555   -0.2301 C   0  0  0  0  0  0  0  0  0  0  0  0
    0.9696    0.8710   -1.1243 H   0  0  0  0  0  0  0  0  0  0  0  0
    0.3905   -1.0763   -0.4532 C   0  0  0  0  0  0  0  0  0  0  0  0
   -1.0487   -0.8093   -0.8817 C   0  0  0  0  0  0  0  0  0  0  0  0
   -1.7204    0.1613    0.0476 C   0  0  0  0  0  0  0  0  0  0  0  0
   -1.0259    0.9617    0.8719 C   0  0  0  0  0  0  0  0  0  0  0  0
    0.4558    0.9851    0.9503 C   0  0  0  0  0  0  0  0  0  0  0  0
   -3.1695    0.2119    0.0406 C   0  0  0  0  0  0  0  0  0  0  0  0
   -3.9003   -0.4788   -0.6474 O   0  0  0  0  0  0  0  0  0  0  0  0
    2.8683   -1.9469    0.5470 H   0  0  0  0  0  0  0  0  0  0  0  0
    4.0976   -0.8545    1.1845 H   0  0  0  0  0  0  0  0  0  0  0  0
    2.4821   -0.8902    1.8991 H   0  0  0  0  0  0  0  0  0  0  0  0
    3.1577    1.6149   -1.3485 H   0  0  0  0  0  0  0  0  0  0  0  0
    4.5294    0.7772   -0.4804 H   0  0  0  0  0  0  0  0  0  0  0  0
    0.9013   -1.6557   -1.2233 H   0  0  0  0  0  0  0  0  0  0  0  0
    0.3880   -1.6553    0.4707 H   0  0  0  0  0  0  0  0  0  0  0  0
   -1.0739   -0.3979   -1.8951 H   0  0  0  0  0  0  0  0  0  0  0  0
   -1.6308   -1.7334   -0.9028 H   0  0  0  0  0  0  0  0  0  0  0  0
   -1.5553    1.6301    1.5380 H   0  0  0  0  0  0  0  0  0  0  0  0
    0.8045    2.0193    0.9950 H   0  0  0  0  0  0  0  0  0  0  0  0
    0.7504    0.5169    1.8949 H   0  0  0  0  0  0  0  0  0  0  0  0
   -3.6094    0.9535    0.7344 H   0  0  0  0  0  0  0  0  0  0  0  0
  1  2  1  0  0  0  0
  2  3  2  0  0  0  0
  2  4  1  0  0  0  0
  4  5  1  0  0  0  0
  4  6  1  0  0  0  0
  6  7  1  0  0  0  0
  7  8  1  0  0  0  0
  8  9  2  0  0  0  0
  4 10  1  0  0  0  0
  9 10  1  0  0  0  0
  8 11  1  0  0  0  0
 11 12  2  0  0  0  0
  1 13  1  0  0  0  0
  1 14  1  0  0  0  0
  1 15  1  0  0  0  0
  3 16  1  0  0  0  0
  3 17  1  0  0  0  0
  6 18  1  0  0  0  0
  6 19  1  0  0  0  0
  7 20  1  0  0  0  0
  7 21  1  0  0  0  0
  9 22  1  0  0  0  0
 10 23  1  0  0  0  0
 10 24  1  0  0  0  0
 11 25  1  0  0  0  0
M  END
