  23
 
 C         -0.5080000000       -0.4810000000        0.8470000000
 C         -1.9970000000       -0.5980000000        0.5480000000
 C         -2.8410000000       -1.3570000000        1.6080000000
 C         -2.7380000000       -0.6450000000        2.9740000000
 C         -4.3190000000       -1.3070000000        1.1670000000
 C         -2.3930000000       -2.8310000000        1.8010000000
 C         -2.4710000000       -3.7150000000        0.5620000000
 H          0.0220000000        0.0640000000        0.0600000000
 H         -0.0640000000       -1.4800000000        0.9100000000
 H         -0.3240000000        0.0190000000        1.8020000000
 H         -2.3990000000        0.4170000000        0.4300000000
 H         -2.1140000000       -1.0780000000       -0.4320000000
 H         -3.3270000000       -1.1660000000        3.7380000000
 H         -3.0960000000        0.3880000000        2.9210000000
 H         -1.7000000000       -0.6120000000        3.3230000000
 H         -4.9720000000       -1.8270000000        1.8750000000
 H         -4.6720000000       -0.2730000000        1.0800000000
 H         -4.4540000000       -1.7850000000        0.1900000000
 H         -1.3630000000       -2.8600000000        2.1780000000
 H         -3.0080000000       -3.2940000000        2.5840000000
 H         -2.1340000000       -4.7270000000        0.8080000000
 H         -3.4950000000       -3.7930000000        0.1850000000
 H         -1.8300000000       -3.3430000000       -0.2420000000
