 xtb: 6.7.1 (edcfbbe)
          04112511523D

 13 12  0     0  0            999 V2000
   -2.0716   -0.5501    0.1334 C   0  0  0  0  0  0  0  0  0  0  0  0
   -1.3015    0.6251   -0.0339 O   0  0  0  0  0  0  0  0  0  0  0  0
   -0.0034    0.4169   -0.5480 C   0  0  0  0  0  0  0  0  0  0  0  0
    0.9648   -0.2063    0.4721 C   0  0  0  0  0  0  0  0  0  0  0  0
    2.2818   -0.2715   -0.0200 O   0  0  0  0  0  0  0  0  0  0  0  0
   -2.0947   -1.1334   -0.7926 H   0  0  0  0  0  0  0  0  0  0  0  0
   -3.0753   -0.2129    0.3806 H   0  0  0  0  0  0  0  0  0  0  0  0
   -1.6857   -1.1731    0.9445 H   0  0  0  0  0  0  0  0  0  0  0  0
   -0.0404   -0.2111   -1.4492 H   0  0  0  0  0  0  0  0  0  0  0  0
    0.3496    1.4140   -0.8252 H   0  0  0  0  0  0  0  0  0  0  0  0
    0.6839   -1.2407    0.6824 H   0  0  0  0  0  0  0  0  0  0  0  0
    0.9180    0.3678    1.4068 H   0  0  0  0  0  0  0  0  0  0  0  0
    2.6135    0.6240   -0.1755 H   0  0  0  0  0  0  0  0  0  0  0  0
  1  2  1  0  0  0  0
  2  3  1  0  0  0  0
  3  4  1  0  0  0  0
  4  5  1  0  0  0  0
  1  6  1  0  0  0  0
  1  7  1  0  0  0  0
  1  8  1  0  0  0  0
  3  9  1  0  0  0  0
  3 10  1  0  0  0  0
  4 11  1  0  0  0  0
  4 12  1  0  0  0  0
  5 13  1  0  0  0  0
M  END
