17
 xtb: 6.7.1 (edcfbbe)
C           -2.07259149638106       -0.51514640266413        0.93655416048915
C           -2.07787867623803        0.55515349751589       -0.15061809515849
C           -0.86550397532086        0.50816968289215       -1.05857199772373
O            0.34479570768945        0.81826709601363       -0.29445445229841
C            1.16255340562353       -0.19253914327612        0.05637106055900
O            0.97574461484560       -1.36015964753958       -0.24714100930248
C            2.33981710886747        0.28424553455389        0.84677222274995
H           -1.20336585564013       -0.41172302369257        1.59510307473067
H           -2.96813671624027       -0.43427185818733        1.56003432293143
H           -2.05170127854575       -1.51978876950136        0.50151350822921
H           -2.15077075213596        1.55309403267748        0.29760823648564
H           -2.95709869283723        0.43269255667659       -0.79505011985467
H           -0.74931260085472       -0.46787105982683       -1.53535279513768
H           -0.91380584926938        1.28544261216011       -1.82460922177857
H            2.27561866849015        1.34440981911494        1.08956253236657
H            3.24528542711771        0.09577292024049        0.26123733694840
H            2.41109193854995       -0.30895630267977        1.76222732553185
