 xtb: 6.7.1 (edcfbbe)
          04112512293D

 24 24  0     0  0            999 V2000
   -3.3378    0.0506   -0.6478 C   0  0  0  0  0  0  0  0  0  0  0  0
   -2.1723    0.2785    0.3079 C   0  0  0  0  0  0  0  0  0  0  0  0
   -0.9144   -0.4552   -0.1532 C   0  0  0  0  0  0  0  0  0  0  0  0
    0.2746   -0.2534    0.7907 C   0  0  0  0  0  0  0  0  0  0  0  0
    1.4336   -1.1989    0.4615 C   0  0  0  0  0  0  0  0  0  0  0  0
    2.1479   -0.5371   -0.7201 C   0  0  0  0  0  0  0  0  0  0  0  0
    1.8929    0.9731   -0.5624 C   0  0  0  0  0  0  0  0  0  0  0  0
    0.9315    1.1208    0.6268 C   0  0  0  0  0  0  0  0  0  0  0  0
   -3.0907    0.4141   -1.6428 H   0  0  0  0  0  0  0  0  0  0  0  0
   -3.5701   -1.0097   -0.7193 H   0  0  0  0  0  0  0  0  0  0  0  0
   -4.2254    0.5743   -0.3012 H   0  0  0  0  0  0  0  0  0  0  0  0
   -1.9719    1.3493    0.3794 H   0  0  0  0  0  0  0  0  0  0  0  0
   -2.4474   -0.0719    1.3056 H   0  0  0  0  0  0  0  0  0  0  0  0
   -1.1400   -1.5230   -0.2127 H   0  0  0  0  0  0  0  0  0  0  0  0
   -0.6476   -0.1171   -1.1553 H   0  0  0  0  0  0  0  0  0  0  0  0
   -0.0718   -0.4046    1.8175 H   0  0  0  0  0  0  0  0  0  0  0  0
    2.1065   -1.2546    1.3187 H   0  0  0  0  0  0  0  0  0  0  0  0
    1.0968   -2.2078    0.2274 H   0  0  0  0  0  0  0  0  0  0  0  0
    3.2117   -0.7707   -0.7235 H   0  0  0  0  0  0  0  0  0  0  0  0
    1.7281   -0.8978   -1.6591 H   0  0  0  0  0  0  0  0  0  0  0  0
    2.8191    1.5169   -0.3807 H   0  0  0  0  0  0  0  0  0  0  0  0
    1.4478    1.3821   -1.4692 H   0  0  0  0  0  0  0  0  0  0  0  0
    1.4919    1.3602    1.5316 H   0  0  0  0  0  0  0  0  0  0  0  0
    0.2039    1.9137    0.4650 H   0  0  0  0  0  0  0  0  0  0  0  0
  1  2  1  0  0  0  0
  2  3  1  0  0  0  0
  3  4  1  0  0  0  0
  4  5  1  0  0  0  0
  5  6  1  0  0  0  0
  6  7  1  0  0  0  0
  4  8  1  0  0  0  0
  7  8  1  0  0  0  0
  1  9  1  0  0  0  0
  1 10  1  0  0  0  0
  1 11  1  0  0  0  0
  2 12  1  0  0  0  0
  2 13  1  0  0  0  0
  3 14  1  0  0  0  0
  3 15  1  0  0  0  0
  4 16  1  0  0  0  0
  5 17  1  0  0  0  0
  5 18  1  0  0  0  0
  6 19  1  0  0  0  0
  6 20  1  0  0  0  0
  7 21  1  0  0  0  0
  7 22  1  0  0  0  0
  8 23  1  0  0  0  0
  8 24  1  0  0  0  0
M  END
