 27

C     -3.729000    -4.783000     2.223000
C     -2.724000    -3.810000     1.675000
C     -2.863000    -2.485000     1.851000
C     -1.905000    -1.463000     1.310000
C     -0.933000    -2.030000     0.263000
H     -1.475000    -2.166000    -0.683000
C     -0.399000    -3.394000     0.723000
C     -1.541000    -4.397000     0.943000
H     -1.137000    -5.251000     1.499000
O     -1.967000    -4.876000    -0.333000
C      0.187000    -1.069000    -0.001000
C      1.023000    -0.670000     0.969000
C      0.320000    -0.578000    -1.413000
H     -3.460000    -5.073000     3.242000
H     -3.767000    -5.681000     1.600000
H     -4.725000    -4.332000     2.237000
H     -3.713000    -2.100000     2.408000
H     -2.481000    -0.645000     0.859000
H     -1.356000    -1.032000     2.158000
H      0.300000    -3.791000    -0.025000
H      0.161000    -3.271000     1.660000
H     -1.195000    -5.299000    -0.738000
H      1.831000     0.026000     0.766000
H      0.920000    -1.030000     1.987000
H     -0.271000     0.333000    -1.556000
H      1.367000    -0.352000    -1.639000
H     -0.027000    -1.318000    -2.142000
