 13

C      1.885000    -1.036000    -0.112000
C      2.921000    -1.631000     0.608000
C      2.878000    -1.652000     2.002000
C      1.800000    -1.079000     2.676000
C      0.764000    -0.484000     1.955000
C      0.807000    -0.463000     0.561000
O     -0.302000     0.084000     2.587000
Cl     1.773000    -1.119000     4.400000
H      1.919000    -1.020000    -1.198000
H      3.761000    -2.077000     0.084000
H      3.693000    -2.119000     2.549000
H      0.003000    -0.002000    -0.007000
H     -0.205000    -0.001000     3.548000
