  13
 
 C          1.8850000000       -1.0360000000       -0.1120000000
 C          2.9210000000       -1.6310000000        0.6080000000
 C          2.8780000000       -1.6520000000        2.0020000000
 C          1.8000000000       -1.0790000000        2.6760000000
 C          0.7640000000       -0.4840000000        1.9550000000
 C          0.8070000000       -0.4630000000        0.5610000000
 O         -0.3020000000        0.0840000000        2.5870000000
 Cl         1.7730000000       -1.1190000000        4.4000000000
 H          1.9190000000       -1.0200000000       -1.1980000000
 H          3.7610000000       -2.0770000000        0.0840000000
 H          3.6930000000       -2.1190000000        2.5490000000
 H          0.0030000000       -0.0020000000       -0.0070000000
 H         -0.2050000000       -0.0010000000        3.5480000000
