 xtb: 6.7.1 (edcfbbe)
          04112512273D

 19 18  0     0  0            999 V2000
    1.4740    0.9229   -0.9422 C   0  0  0  0  0  0  0  0  0  0  0  0
    1.3834    0.1223    0.3549 C   0  0  0  0  0  0  0  0  0  0  0  0
    1.6596   -1.3558    0.0978 C   0  0  0  0  0  0  0  0  0  0  0  0
    0.0137    0.3275    1.0397 C   0  0  0  0  0  0  0  0  0  0  0  0
   -1.1440   -0.0075    0.1294 C   0  0  0  0  0  0  0  0  0  0  0  0
   -1.3986   -1.1471   -0.2121 O   0  0  0  0  0  0  0  0  0  0  0  0
   -1.9691    1.1624   -0.3181 C   0  0  0  0  0  0  0  0  0  0  0  0
    1.2609    1.9742   -0.7639 H   0  0  0  0  0  0  0  0  0  0  0  0
    2.4747    0.8446   -1.3601 H   0  0  0  0  0  0  0  0  0  0  0  0
    0.7685    0.5382   -1.6762 H   0  0  0  0  0  0  0  0  0  0  0  0
    2.1432    0.4997    1.0482 H   0  0  0  0  0  0  0  0  0  0  0  0
    1.6854   -1.9105    1.0329 H   0  0  0  0  0  0  0  0  0  0  0  0
    2.6164   -1.4794   -0.4035 H   0  0  0  0  0  0  0  0  0  0  0  0
    0.8824   -1.7862   -0.5300 H   0  0  0  0  0  0  0  0  0  0  0  0
   -0.0685    1.3608    1.3736 H   0  0  0  0  0  0  0  0  0  0  0  0
   -0.0331   -0.3358    1.9054 H   0  0  0  0  0  0  0  0  0  0  0  0
   -1.3280    1.9169   -0.7656 H   0  0  0  0  0  0  0  0  0  0  0  0
   -2.7273    0.8445   -1.0288 H   0  0  0  0  0  0  0  0  0  0  0  0
   -2.4498    1.6046    0.5519 H   0  0  0  0  0  0  0  0  0  0  0  0
  1  2  1  0  0  0  0
  2  3  1  0  0  0  0
  2  4  1  0  0  0  0
  4  5  1  0  0  0  0
  5  6  2  0  0  0  0
  5  7  1  0  0  0  0
  1  8  1  0  0  0  0
  1  9  1  0  0  0  0
  1 10  1  0  0  0  0
  2 11  1  0  0  0  0
  3 12  1  0  0  0  0
  3 13  1  0  0  0  0
  3 14  1  0  0  0  0
  4 15  1  0  0  0  0
  4 16  1  0  0  0  0
  7 17  1  0  0  0  0
  7 18  1  0  0  0  0
  7 19  1  0  0  0  0
M  END
