 xtb: 6.7.1 (edcfbbe)
          04112512443D

 19 18  0     0  0            999 V2000
    2.3943    1.0008   -0.0814 C   0  0  0  0  0  0  0  0  0  0  0  0
    1.1591    0.1859    0.2950 C   0  0  0  0  0  0  0  0  0  0  0  0
    1.4724   -1.3070    0.2636 C   0  0  0  0  0  0  0  0  0  0  0  0
    0.0008    0.5203   -0.6694 C   0  0  0  0  0  0  0  0  0  0  0  0
   -1.2957   -0.0486   -0.1541 C   0  0  0  0  0  0  0  0  0  0  0  0
   -1.6877   -1.1588   -0.4613 O   0  0  0  0  0  0  0  0  0  0  0  0
   -2.0600    0.8441    0.7775 C   0  0  0  0  0  0  0  0  0  0  0  0
    2.1925    2.0664   -0.0080 H   0  0  0  0  0  0  0  0  0  0  0  0
    3.2180    0.7597    0.5857 H   0  0  0  0  0  0  0  0  0  0  0  0
    2.7001    0.7754   -1.1002 H   0  0  0  0  0  0  0  0  0  0  0  0
    0.8570    0.4589    1.3119 H   0  0  0  0  0  0  0  0  0  0  0  0
    0.5770   -1.8949    0.4543 H   0  0  0  0  0  0  0  0  0  0  0  0
    2.2153   -1.5561    1.0172 H   0  0  0  0  0  0  0  0  0  0  0  0
    1.8616   -1.5909   -0.7117 H   0  0  0  0  0  0  0  0  0  0  0  0
    0.2232    0.0847   -1.6446 H   0  0  0  0  0  0  0  0  0  0  0  0
   -0.0861    1.6023   -0.7606 H   0  0  0  0  0  0  0  0  0  0  0  0
   -2.5175    1.6383    0.1905 H   0  0  0  0  0  0  0  0  0  0  0  0
   -2.8413    0.2860    1.2859 H   0  0  0  0  0  0  0  0  0  0  0  0
   -1.3892    1.3035    1.4977 H   0  0  0  0  0  0  0  0  0  0  0  0
  1  2  1  0  0  0  0
  2  3  1  0  0  0  0
  2  4  1  0  0  0  0
  4  5  1  0  0  0  0
  5  6  2  0  0  0  0
  5  7  1  0  0  0  0
  1  8  1  0  0  0  0
  1  9  1  0  0  0  0
  1 10  1  0  0  0  0
  2 11  1  0  0  0  0
  3 12  1  0  0  0  0
  3 13  1  0  0  0  0
  3 14  1  0  0  0  0
  4 15  1  0  0  0  0
  4 16  1  0  0  0  0
  7 17  1  0  0  0  0
  7 18  1  0  0  0  0
  7 19  1  0  0  0  0
M  END
