21
 xtb: 6.7.1 (edcfbbe)
C            1.70376011809085        1.20848141756465        0.25179871167453
C            1.34303911999511       -0.12783819903179       -0.37715344853021
C            1.73394731829266       -1.30912286641720        0.50522963989714
O           -0.03736195391735       -0.21240349641348       -0.82426668329497
C           -1.08187082061040        0.39159800912177       -0.02798426506400
C           -2.31837886287172        0.36318493834937       -0.91069278127686
C           -1.32689063569101       -0.33182003479976        1.29029529111683
H            1.41338167028801        2.04419289523434       -0.39257361191114
H            1.24223594585692        1.34030901846190        1.23573094955054
H            2.78938514472146        1.24825608584999        0.38613908363821
H            1.90136016052856       -0.21982131063784       -1.31743772375668
H            2.82522895850710       -1.34949345797470        0.59307445869694
H            1.39644008899724       -2.24940256098660        0.05838648801089
H            1.31870081281122       -1.23047100668892        1.51306383597864
H           -0.81754272653496        1.43805239392177        0.17704329272668
H           -2.60769986063928       -0.67019702415702       -1.13223143203531
H           -3.15449251744693        0.85262843740052       -0.40270381402387
H           -2.13513753933186        0.88484663461570       -1.85487601470693
H           -0.49485840370614       -0.21137424054260        1.98743321543053
H           -1.48963003260941       -1.40125406912293        1.11519974500262
H           -2.22310612434611        0.07820648042039        1.76832850682920
