23
 xtb: 6.7.1 (edcfbbe)
C            2.66323943080373        0.54587204439305        0.54282674719707
C            1.31551585540332       -0.11168256317471        0.83586058493591
C            0.28580582440413        0.04315831652075       -0.29796465927466
H            0.33311197278338        1.08123678016273       -0.66546062560301
C            0.65116706746823       -0.89207137102993       -1.45516552539348
C           -1.15395217237984       -0.19354485539717        0.21581573152422
C           -1.61982430454489        0.94988636864236        1.12354019575281
C           -2.16948855702589       -0.36201269602212       -0.91826745743986
H            3.36960133342641        0.37761980626170        1.36250625214548
H            3.12176606383414        0.15417036939337       -0.37106421541436
H            2.54696174275307        1.62870004410525        0.41978963947610
H            0.91968662315347        0.31461947760381        1.76361077306646
H            1.45830241822474       -1.18473309500396        1.02609105844949
H            0.48108807466566       -1.93780598049897       -1.16946869521320
H            0.06440676971557       -0.68723364416848       -2.35465054485980
H            1.70676764672065       -0.78893413210802       -1.72544509510178
H           -1.14183061666932       -1.12521394293954        0.80321368477156
H           -0.94124074279996        1.12996121331749        1.96212833353074
H           -2.60964132042079        0.73472953469940        1.54038202633513
H           -1.69633384306962        1.88018000265592        0.54687389902111
H           -3.18349225062427       -0.44063567286031       -0.51128252988717
H           -1.98316025289392       -1.25778467042603       -1.51659252828784
H           -2.14693975923331        0.50566831379702       -1.58972913466495
