17
 xtb: 6.7.1 (edcfbbe)
C           -2.88414414524680       -0.16749579883415        0.28304298818319
C           -1.66476002035467        0.73084444328373        0.15074491821986
C           -0.40029043316358       -0.02690865245777       -0.14411254494137
O           -0.31456609182071       -1.23915216298362       -0.25015658947474
O            0.64745763720091        0.80963366378352       -0.28662723941538
C            1.95635166627755        0.20604003303037       -0.53592067482049
C            2.60035120561733       -0.23621137163861        0.75833106037696
H           -2.75988587668057       -0.88514704141978        1.09898554092101
H           -3.77072731057149        0.43665204423605        0.49315900050067
H           -3.06399598171394       -0.72735199003732       -0.63916875343848
H           -1.49068126080528        1.30580175806313        1.06836340334343
H           -1.79733691029925        1.47290471376130       -0.64552062325005
H            1.83671730273235       -0.62055382805372       -1.24085785135252
H            2.52756245513814        1.00421632626428       -1.01359593276617
H            3.60067184623305       -0.62624402883607        0.54442740603887
H            2.70094791182320        0.60644806888918        1.44865104864394
H            2.02032612822630       -1.02636918651351        1.24296748213259
