22
 xtb: 6.7.1 (edcfbbe)
C            2.25621759263896        1.12054508786834       -0.54665832817092
C            1.20894969032561        0.49639177114868        0.36786571121987
C            1.81168641003127       -0.65452425272858        1.19507670183711
C            0.00023513127013        0.00041114706902       -0.40993093093195
O           -0.00040841172517        0.00370579399872       -1.63693593976122
C           -1.20854890710408       -0.49763461733983        0.36637218789962
C           -2.25445062675443       -1.12175595923030       -0.54971628001631
C           -1.81329814683291        0.65146277985037        1.19471252505899
H            2.66931839949142        0.37789545343813       -1.23673696352757
H            3.07833659483134        1.52026780325992        0.05431897517149
H            1.83642998497197        1.93816255514075       -1.13941534433192
H            0.84792064586571        1.25767763002425        1.07140807883406
H            2.06461875008028       -1.50323169222823        0.55026673920214
H            2.73128873686519       -0.30796991813478        1.67565817655117
H            1.13381000194931       -1.00295145547103        1.97802750383229
H           -0.84721328044412       -1.25942663636946        1.06911452991373
H           -2.66788604018528       -0.37879804771732       -1.23923238759664
H           -1.83324502081776       -1.93822350702111       -1.14308853234175
H           -3.07654767155085       -1.52314438772038        0.05019254271003
H           -2.06832073964545        1.50002433374429        0.55053893607714
H           -2.73193946800452        0.30279139782225        1.67561678510958
H           -1.13566130111610        1.00082886953960        1.97746018232239
