 xtb: 6.7.1 (edcfbbe)
          04112512083D

 17 16  0     0  0            999 V2000
   -2.6943    0.4571    0.9215 C   0  0  0  0  0  0  0  0  0  0  0  0
   -2.1456    0.3799   -0.4984 C   0  0  0  0  0  0  0  0  0  0  0  0
   -0.8739   -0.4533   -0.5691 C   0  0  0  0  0  0  0  0  0  0  0  0
    0.1639    0.2324    0.1471 O   0  0  0  0  0  0  0  0  0  0  0  0
    1.4143   -0.1718   -0.0313 C   0  0  0  0  0  0  0  0  0  0  0  0
    1.7152   -1.1008   -0.7540 O   0  0  0  0  0  0  0  0  0  0  0  0
    2.3847    0.6651    0.7465 C   0  0  0  0  0  0  0  0  0  0  0  0
   -3.5865    1.0761    0.9472 H   0  0  0  0  0  0  0  0  0  0  0  0
   -2.9497   -0.5353    1.2851 H   0  0  0  0  0  0  0  0  0  0  0  0
   -1.9509    0.8888    1.5862 H   0  0  0  0  0  0  0  0  0  0  0  0
   -1.9242    1.3836   -0.8631 H   0  0  0  0  0  0  0  0  0  0  0  0
   -2.8822   -0.0740   -1.1613 H   0  0  0  0  0  0  0  0  0  0  0  0
   -1.0166   -1.4375   -0.1106 H   0  0  0  0  0  0  0  0  0  0  0  0
   -0.5426   -0.6015   -1.6025 H   0  0  0  0  0  0  0  0  0  0  0  0
    3.3344    0.1465    0.8230 H   0  0  0  0  0  0  0  0  0  0  0  0
    1.9774    0.8838    1.7283 H   0  0  0  0  0  0  0  0  0  0  0  0
    2.5300    1.6049    0.2183 H   0  0  0  0  0  0  0  0  0  0  0  0
  1  2  1  0  0  0  0
  2  3  1  0  0  0  0
  3  4  1  0  0  0  0
  4  5  1  0  0  0  0
  5  6  2  0  0  0  0
  5  7  1  0  0  0  0
  1  8  1  0  0  0  0
  1  9  1  0  0  0  0
  1 10  1  0  0  0  0
  2 11  1  0  0  0  0
  2 12  1  0  0  0  0
  3 13  1  0  0  0  0
  3 14  1  0  0  0  0
  7 15  1  0  0  0  0
  7 16  1  0  0  0  0
  7 17  1  0  0  0  0
M  END
