  20
 
 C          1.3500000000       -2.1270000000       -2.1490000000
 O          1.9380000000       -1.0220000000       -1.4740000000
 C          1.8850000000       -1.0360000000       -0.1120000000
 C          2.9210000000       -1.6310000000        0.6080000000
 C          2.8780000000       -1.6520000000        2.0020000000
 C          1.8000000000       -1.0790000000        2.6760000000
 C          0.7640000000       -0.4840000000        1.9550000000
 C          0.8070000000       -0.4630000000        0.5610000000
 O         -0.2120000000        0.1190000000       -0.1310000000
 C         -1.2770000000        0.6820000000        0.6330000000
 H          1.4580000000       -1.9960000000       -3.2280000000
 H          0.2910000000       -2.1960000000       -1.8840000000
 H          1.8600000000       -3.0440000000       -1.8430000000
 H          3.7640000000       -2.0800000000        0.0900000000
 H          3.6860000000       -2.1140000000        2.5630000000
 H          1.7660000000       -1.0970000000        3.7610000000
 H         -0.0740000000       -0.0400000000        2.4850000000
 H         -2.0140000000        1.1080000000       -0.0460000000
 H         -0.8730000000        1.4500000000        1.2920000000
 H         -1.7330000000       -0.1110000000        1.2240000000
