24
 xtb: 6.7.1 (edcfbbe)
C            2.24928707061559       -0.66154458939445       -1.37641170845406
C            2.31822028533442       -0.11838543366499        0.05000700948808
C            2.32369381102398        1.40933445038888        0.04526597251397
C            1.19868405300959       -0.69702462939686        0.95161593881731
C           -0.19895711332577       -0.34675415484102        0.51609515773391
C           -0.82811410777824        0.81391479832671        0.98120874682116
C           -2.10892907260670        1.15704021341701        0.55437069591198
C           -2.78890220453979        0.34028616920716       -0.34693347228826
C           -2.17954311964196       -0.82392171742510       -0.81077200437731
C           -0.89862856127928       -1.16255232904657       -0.38087428562148
H            2.25442183484845       -1.75700840114813       -1.38984347488682
H            3.10686655561659       -0.31180887984483       -1.96139750237725
H            1.34007662724730       -0.32131510042061       -1.88499929485558
H            3.26236704215871       -0.45875255970480        0.49635578301801
H            2.38130736797741        1.81407018751830        1.06171052964128
H            3.18323529320087        1.78738256807936       -0.51884136306405
H            1.41706612591503        1.80621043945653       -0.42559624889343
H            1.36028979789167       -0.33147510081575        1.97240942794009
H            1.30664252984220       -1.78774020474450        0.97129773720651
H           -0.30769537178640        1.45237357345270        1.69012055432704
H           -2.57897733588704        2.06112564914194        0.93010738213275
H           -3.78838309774010        0.60430685647375       -0.67857881747752
H           -2.70474375771702       -1.47307921231969       -1.50520481959635
H           -0.43313440995360       -2.07601277352011       -0.74135401786895
