 xtb: 6.7.1 (edcfbbe)
          04112511193D

 14 13  0     0  0            999 V2000
   -1.1041   -0.1539    0.7087 C   0  0  0  0  0  0  0  0  0  0  0  0
    0.2147    0.5554    0.3586 C   0  0  0  0  0  0  0  0  0  0  0  0
    1.1247   -0.3683   -0.4671 C   0  0  0  0  0  0  0  0  0  0  0  0
    1.6895   -1.3989    0.3026 O   0  0  0  0  0  0  0  0  0  0  0  0
   -0.0346    1.7081   -0.4210 O   0  0  0  0  0  0  0  0  0  0  0  0
   -1.8717   -0.4157   -0.4418 O   0  0  0  0  0  0  0  0  0  0  0  0
   -1.6830    0.4606    1.4138 H   0  0  0  0  0  0  0  0  0  0  0  0
   -0.8860   -1.1180    1.1715 H   0  0  0  0  0  0  0  0  0  0  0  0
    0.7318    0.8221    1.2913 H   0  0  0  0  0  0  0  0  0  0  0  0
    1.8947    0.2431   -0.9525 H   0  0  0  0  0  0  0  0  0  0  0  0
    0.5285   -0.8573   -1.2409 H   0  0  0  0  0  0  0  0  0  0  0  0
    2.3292   -1.0259    0.9256 H   0  0  0  0  0  0  0  0  0  0  0  0
   -0.4335    2.3937    0.1334 H   0  0  0  0  0  0  0  0  0  0  0  0
   -1.8439    0.3771   -1.0017 H   0  0  0  0  0  0  0  0  0  0  0  0
  1  2  1  0  0  0  0
  2  3  1  0  0  0  0
  3  4  1  0  0  0  0
  2  5  1  0  0  0  0
  1  6  1  0  0  0  0
  1  7  1  0  0  0  0
  1  8  1  0  0  0  0
  2  9  1  0  0  0  0
  3 10  1  0  0  0  0
  3 11  1  0  0  0  0
  4 12  1  0  0  0  0
  5 13  1  0  0  0  0
  6 14  1  0  0  0  0
M  END
