 xtb: 6.7.1 (edcfbbe)
          04112511493D

 21 20  0     0  0            999 V2000
    1.8061    0.5504   -1.1163 C   0  0  0  0  0  0  0  0  0  0  0  0
    1.0686   -0.1828    0.0037 C   0  0  0  0  0  0  0  0  0  0  0  0
    0.6676   -1.1289   -0.3897 H   0  0  0  0  0  0  0  0  0  0  0  0
   -0.0726    0.6583    0.5977 C   0  0  0  0  0  0  0  0  0  0  0  0
   -1.4934    0.2890    0.1488 C   0  0  0  0  0  0  0  0  0  0  0  0
   -1.6742    0.4026   -1.3634 C   0  0  0  0  0  0  0  0  0  0  0  0
   -1.9066   -1.0986    0.6373 C   0  0  0  0  0  0  0  0  0  0  0  0
    1.9533   -0.4853    1.0774 O   0  0  0  0  0  0  0  0  0  0  0  0
    2.2791    1.4450   -0.7168 H   0  0  0  0  0  0  0  0  0  0  0  0
    2.5741   -0.0859   -1.5521 H   0  0  0  0  0  0  0  0  0  0  0  0
    1.1105    0.8380   -1.8977 H   0  0  0  0  0  0  0  0  0  0  0  0
   -0.0114    0.5434    1.6824 H   0  0  0  0  0  0  0  0  0  0  0  0
    0.1099    1.7103    0.3712 H   0  0  0  0  0  0  0  0  0  0  0  0
   -2.1614    1.0185    0.6222 H   0  0  0  0  0  0  0  0  0  0  0  0
   -1.0676   -0.3347   -1.8830 H   0  0  0  0  0  0  0  0  0  0  0  0
   -1.3927    1.3945   -1.7086 H   0  0  0  0  0  0  0  0  0  0  0  0
   -2.7152    0.2317   -1.6280 H   0  0  0  0  0  0  0  0  0  0  0  0
   -2.9535   -1.2807    0.4063 H   0  0  0  0  0  0  0  0  0  0  0  0
   -1.3155   -1.8759    0.1599 H   0  0  0  0  0  0  0  0  0  0  0  0
   -1.7710   -1.1794    1.7131 H   0  0  0  0  0  0  0  0  0  0  0  0
    2.7173   -0.9681    0.7345 H   0  0  0  0  0  0  0  0  0  0  0  0
  1  2  1  0  0  0  0
  2  3  1  0  0  0  0
  2  4  1  0  0  0  0
  4  5  1  0  0  0  0
  5  6  1  0  0  0  0
  5  7  1  0  0  0  0
  2  8  1  0  0  0  0
  1  9  1  0  0  0  0
  1 10  1  0  0  0  0
  1 11  1  0  0  0  0
  4 12  1  0  0  0  0
  4 13  1  0  0  0  0
  5 14  1  0  0  0  0
  6 15  1  0  0  0  0
  6 16  1  0  0  0  0
  6 17  1  0  0  0  0
  7 18  1  0  0  0  0
  7 19  1  0  0  0  0
  7 20  1  0  0  0  0
  8 21  1  0  0  0  0
M  END
