 xtb: 6.7.1 (edcfbbe)
          04112512143D

 21 20  0     0  0            999 V2000
    1.9216   -0.7798   -0.8105 C   0  0  0  0  0  0  0  0  0  0  0  0
    1.2046   -0.1044    0.3575 C   0  0  0  0  0  0  0  0  0  0  0  0
    0.9335   -0.8555    1.1082 H   0  0  0  0  0  0  0  0  0  0  0  0
   -0.0613    0.6531   -0.0909 C   0  0  0  0  0  0  0  0  0  0  0  0
   -1.3788   -0.0747    0.2004 C   0  0  0  0  0  0  0  0  0  0  0  0
   -2.5541    0.8453   -0.1292 C   0  0  0  0  0  0  0  0  0  0  0  0
   -1.5048   -1.3780   -0.5847 C   0  0  0  0  0  0  0  0  0  0  0  0
    2.0952    0.7561    1.0547 O   0  0  0  0  0  0  0  0  0  0  0  0
    2.8122   -1.2908   -0.4516 H   0  0  0  0  0  0  0  0  0  0  0  0
    1.2706   -1.5027   -1.2903 H   0  0  0  0  0  0  0  0  0  0  0  0
    2.2194   -0.0360   -1.5473 H   0  0  0  0  0  0  0  0  0  0  0  0
   -0.0795    1.6037    0.4480 H   0  0  0  0  0  0  0  0  0  0  0  0
   -0.0016    0.8731   -1.1589 H   0  0  0  0  0  0  0  0  0  0  0  0
   -1.4110   -0.3082    1.2709 H   0  0  0  0  0  0  0  0  0  0  0  0
   -3.4970    0.3558    0.1020 H   0  0  0  0  0  0  0  0  0  0  0  0
   -2.5498    1.0993   -1.1870 H   0  0  0  0  0  0  0  0  0  0  0  0
   -2.4964    1.7662    0.4463 H   0  0  0  0  0  0  0  0  0  0  0  0
   -1.4146   -1.1877   -1.6519 H   0  0  0  0  0  0  0  0  0  0  0  0
   -0.7375   -2.0880   -0.2885 H   0  0  0  0  0  0  0  0  0  0  0  0
   -2.4751   -1.8330   -0.3995 H   0  0  0  0  0  0  0  0  0  0  0  0
    2.4555    1.4004    0.4293 H   0  0  0  0  0  0  0  0  0  0  0  0
  1  2  1  0  0  0  0
  2  3  1  0  0  0  0
  2  4  1  0  0  0  0
  4  5  1  0  0  0  0
  5  6  1  0  0  0  0
  5  7  1  0  0  0  0
  2  8  1  0  0  0  0
  1  9  1  0  0  0  0
  1 10  1  0  0  0  0
  1 11  1  0  0  0  0
  4 12  1  0  0  0  0
  4 13  1  0  0  0  0
  5 14  1  0  0  0  0
  6 15  1  0  0  0  0
  6 16  1  0  0  0  0
  6 17  1  0  0  0  0
  7 18  1  0  0  0  0
  7 19  1  0  0  0  0
  7 20  1  0  0  0  0
  8 21  1  0  0  0  0
M  END
