 xtb: 6.7.1 (edcfbbe)
          04072507453D

 21 20  0     0  0            999 V2000
    1.7844    1.0641   -0.5681 C   0  0  0  0  0  0  0  0  0  0  0  0
    1.3176   -0.3551   -0.2459 C   0  0  0  0  0  0  0  0  0  0  0  0
    1.7101   -0.7514    1.1820 C   0  0  0  0  0  0  0  0  0  0  0  0
   -0.0557   -0.6088   -0.5368 O   0  0  0  0  0  0  0  0  0  0  0  0
   -1.0643    0.3398   -0.1965 C   0  0  0  0  0  0  0  0  0  0  0  0
   -2.3024   -0.0968   -0.9798 C   0  0  0  0  0  0  0  0  0  0  0  0
   -1.3751    0.3959    1.3012 C   0  0  0  0  0  0  0  0  0  0  0  0
    1.4693    1.3508   -1.5688 H   0  0  0  0  0  0  0  0  0  0  0  0
    1.3907    1.7800    0.1497 H   0  0  0  0  0  0  0  0  0  0  0  0
    2.8689    1.0934   -0.5228 H   0  0  0  0  0  0  0  0  0  0  0  0
    1.8161   -1.0502   -0.9357 H   0  0  0  0  0  0  0  0  0  0  0  0
    1.2436   -1.6983    1.4403 H   0  0  0  0  0  0  0  0  0  0  0  0
    1.4043    0.0002    1.9036 H   0  0  0  0  0  0  0  0  0  0  0  0
    2.7890   -0.8648    1.2386 H   0  0  0  0  0  0  0  0  0  0  0  0
   -0.7628    1.3390   -0.5422 H   0  0  0  0  0  0  0  0  0  0  0  0
   -2.0613   -0.1715   -2.0365 H   0  0  0  0  0  0  0  0  0  0  0  0
   -2.6281   -1.0730   -0.6317 H   0  0  0  0  0  0  0  0  0  0  0  0
   -3.1045    0.6219   -0.8441 H   0  0  0  0  0  0  0  0  0  0  0  0
   -0.5792    0.8845    1.8556 H   0  0  0  0  0  0  0  0  0  0  0  0
   -1.5069   -0.6117    1.6870 H   0  0  0  0  0  0  0  0  0  0  0  0
   -2.2929    0.9563    1.4559 H   0  0  0  0  0  0  0  0  0  0  0  0
  1  2  1  0  0  0  0
  2  3  1  0  0  0  0
  2  4  1  0  0  0  0
  4  5  1  0  0  0  0
  5  6  1  0  0  0  0
  5  7  1  0  0  0  0
  1  8  1  0  0  0  0
  1  9  1  0  0  0  0
  1 10  1  0  0  0  0
  2 11  1  0  0  0  0
  3 12  1  0  0  0  0
  3 13  1  0  0  0  0
  3 14  1  0  0  0  0
  5 15  1  0  0  0  0
  6 16  1  0  0  0  0
  6 17  1  0  0  0  0
  6 18  1  0  0  0  0
  7 19  1  0  0  0  0
  7 20  1  0  0  0  0
  7 21  1  0  0  0  0
M  END
