 xtb: 6.7.1 (edcfbbe)
          04112511523D

 18 17  0     0  0            999 V2000
    1.0166   -1.2531    0.6761 C   0  0  0  0  0  0  0  0  0  0  0  0
    1.0803    0.2504    0.4220 C   0  0  0  0  0  0  0  0  0  0  0  0
    1.7299    0.5392   -0.9308 C   0  0  0  0  0  0  0  0  0  0  0  0
   -0.2972    0.9167    0.5594 C   0  0  0  0  0  0  0  0  0  0  0  0
   -1.3588    0.4985   -0.4584 C   0  0  0  0  0  0  0  0  0  0  0  0
   -1.8721   -0.7816   -0.1381 O   0  0  0  0  0  0  0  0  0  0  0  0
    2.0119   -1.6884    0.6201 H   0  0  0  0  0  0  0  0  0  0  0  0
    0.3808   -1.7381   -0.0589 H   0  0  0  0  0  0  0  0  0  0  0  0
    0.6035   -1.4554    1.6613 H   0  0  0  0  0  0  0  0  0  0  0  0
    1.7133    0.6980    1.1984 H   0  0  0  0  0  0  0  0  0  0  0  0
    1.7072    1.6044   -1.1492 H   0  0  0  0  0  0  0  0  0  0  0  0
    1.2186    0.0076   -1.7292 H   0  0  0  0  0  0  0  0  0  0  0  0
    2.7666    0.2115   -0.9221 H   0  0  0  0  0  0  0  0  0  0  0  0
   -0.1681    1.9974    0.4731 H   0  0  0  0  0  0  0  0  0  0  0  0
   -0.6940    0.6999    1.5532 H   0  0  0  0  0  0  0  0  0  0  0  0
   -2.1722    1.2374   -0.4272 H   0  0  0  0  0  0  0  0  0  0  0  0
   -0.9377    0.4970   -1.4710 H   0  0  0  0  0  0  0  0  0  0  0  0
   -2.5819   -1.0040   -0.7539 H   0  0  0  0  0  0  0  0  0  0  0  0
  1  2  1  0  0  0  0
  2  3  1  0  0  0  0
  2  4  1  0  0  0  0
  4  5  1  0  0  0  0
  5  6  1  0  0  0  0
  1  7  1  0  0  0  0
  1  8  1  0  0  0  0
  1  9  1  0  0  0  0
  2 10  1  0  0  0  0
  3 11  1  0  0  0  0
  3 12  1  0  0  0  0
  3 13  1  0  0  0  0
  4 14  1  0  0  0  0
  4 15  1  0  0  0  0
  5 16  1  0  0  0  0
  5 17  1  0  0  0  0
  6 18  1  0  0  0  0
M  END
