  23
 
 C         -5.1642415438       -0.1946403983        0.0011498236
 C         -3.8523203645        0.5804475463        0.0003410303
 C         -2.6433533226       -0.3520501887       -0.0005073545
 C         -1.3239537974        0.4160758784       -0.0023147165
 C         -0.1183009699       -0.5210758588       -0.0064903383
 C          1.2001417383        0.2521489506       -0.0072184064
 C          2.3866318935       -0.6961631679       -0.0006351487
 Cl         3.9228233283        0.2132136432        0.0001832837
 H         -6.0120450064        0.4863311162        0.0013481496
 H         -5.2331166529       -0.8284088200       -0.8804009172
 H         -5.2323668971       -0.8280053406        0.8830507194
 H         -3.8103663572        1.2242793472        0.8817816156
 H         -3.8115188558        1.2242579758       -0.8811666357
 H         -2.6870375297       -0.9966806229       -0.8815876894
 H         -2.6851002650       -0.9958239430        0.8812878146
 H         -1.2788402295        1.0583817360        0.8800054237
 H         -1.2828718635        1.0614670294       -0.8825955264
 H         -0.1624929409       -1.1631913031       -0.8891085952
 H         -0.1592805323       -1.1663836148        0.8739878682
 H          1.2511221095        0.8897674779       -0.8918999397
 H          1.2474693240        0.8968216872        0.8725792862
 H          2.3913553738       -1.3208302912        0.8927803663
 H          2.3962135524       -1.3277571151       -0.8891207532
          23
        -27.20031105
 C         -4.7642775568       -0.7242147393        0.1656160725
 C         -3.6417284664        0.1688006986       -0.3482681440
 C         -2.2897100464       -0.2213521780        0.2437749677
 C         -1.1585884671        0.6650143599       -0.2715148196
 C          0.1901469294        0.2725246427        0.3256576063
 C          1.3205837952        1.1599922305       -0.1906691808
 C          2.6704730583        0.7858254752        0.3969605255
 Cl         3.1783857094       -0.8402376486       -0.1412367892
 H         -5.7168319252       -0.4328713146       -0.2711429556
 H         -4.5723975276       -1.7637775030       -0.0919542709
 H         -4.8456534264       -0.6500472014        1.2477677983
 H         -3.8599386056        1.2087241173       -0.0944314841
 H         -3.5918469477        0.0983646566       -1.4372131859
 H         -2.0742048141       -1.2624893933       -0.0068345005
 H         -2.3390877336       -0.1478082538        1.3327230539
 H         -1.3750742907        1.7074295725       -0.0246322542
 H         -1.1078145419        0.5878048296       -1.3600265399
 H          0.4080328319       -0.7669750089        0.0744574930
 H          0.1404017480        0.3487972146        1.4145575148
 H          1.3692102137        1.0941220728       -1.2793313972
 H          1.1189054056        2.2012771456        0.0743821733
 H          3.4505861012        1.4739817532        0.0717821418
 H          2.6348687828        0.7549872884        1.4859678790
