 xtb: 6.7.1 (edcfbbe)
          04072509193D

 19 19  0     0  0            999 V2000
   -2.7697    0.0117   -0.3301 C   0  0  0  0  0  0  0  0  0  0  0  0
   -2.1068   -1.1911   -0.1554 C   0  0  0  0  0  0  0  0  0  0  0  0
   -0.7698   -1.2012    0.2017 C   0  0  0  0  0  0  0  0  0  0  0  0
   -0.0778   -0.0116    0.3914 C   0  0  0  0  0  0  0  0  0  0  0  0
   -0.7516    1.1901    0.2111 C   0  0  0  0  0  0  0  0  0  0  0  0
   -2.0884    1.2031   -0.1455 C   0  0  0  0  0  0  0  0  0  0  0  0
    1.3823   -0.0238    0.7402 C   0  0  0  0  0  0  0  0  0  0  0  0
    2.2308   -0.0103   -0.5407 C   0  0  0  0  0  0  0  0  0  0  0  0
    3.6144    0.0742   -0.2849 O   0  0  0  0  0  0  0  0  0  0  0  0
   -3.8131    0.0210   -0.6073 H   0  0  0  0  0  0  0  0  0  0  0  0
   -2.6328   -2.1236   -0.2967 H   0  0  0  0  0  0  0  0  0  0  0  0
   -0.2590   -2.1434    0.3390 H   0  0  0  0  0  0  0  0  0  0  0  0
   -0.2239    2.1218    0.3552 H   0  0  0  0  0  0  0  0  0  0  0  0
   -2.6001    2.1446   -0.2791 H   0  0  0  0  0  0  0  0  0  0  0  0
    1.6400    0.8551    1.3336 H   0  0  0  0  0  0  0  0  0  0  0  0
    1.6211   -0.9183    1.3192 H   0  0  0  0  0  0  0  0  0  0  0  0
    2.0040   -0.8999   -1.1442 H   0  0  0  0  0  0  0  0  0  0  0  0
    1.9892    0.8746   -1.1347 H   0  0  0  0  0  0  0  0  0  0  0  0
    3.8914   -0.6992    0.2262 H   0  0  0  0  0  0  0  0  0  0  0  0
  1  2  4  0  0  0  0
  2  3  4  0  0  0  0
  3  4  4  0  0  0  0
  4  5  4  0  0  0  0
  1  6  4  0  0  0  0
  5  6  4  0  0  0  0
  4  7  1  0  0  0  0
  7  8  1  0  0  0  0
  8  9  1  0  0  0  0
  1 10  1  0  0  0  0
  2 11  1  0  0  0  0
  3 12  1  0  0  0  0
  5 13  1  0  0  0  0
  6 14  1  0  0  0  0
  7 15  1  0  0  0  0
  7 16  1  0  0  0  0
  8 17  1  0  0  0  0
  8 18  1  0  0  0  0
  9 19  1  0  0  0  0
M  END
