 xtb: 6.7.1 (edcfbbe)
          04112511193D

 14 13  0     0  0            999 V2000
   -1.3606   -0.0730   -0.5446 C   0  0  0  0  0  0  0  0  0  0  0  0
   -0.0149    0.0199    0.1795 C   0  0  0  0  0  0  0  0  0  0  0  0
    1.0895   -0.7365   -0.5692 C   0  0  0  0  0  0  0  0  0  0  0  0
    2.2812   -0.5812    0.1717 O   0  0  0  0  0  0  0  0  0  0  0  0
    0.3246    1.3835    0.3040 O   0  0  0  0  0  0  0  0  0  0  0  0
   -2.3922   -0.0637    0.4158 O   0  0  0  0  0  0  0  0  0  0  0  0
   -1.3984   -0.9998   -1.1321 H   0  0  0  0  0  0  0  0  0  0  0  0
   -1.4386    0.7885   -1.2167 H   0  0  0  0  0  0  0  0  0  0  0  0
   -0.1330   -0.4259    1.1787 H   0  0  0  0  0  0  0  0  0  0  0  0
    1.1978   -0.3060   -1.5727 H   0  0  0  0  0  0  0  0  0  0  0  0
    0.8145   -1.7940   -0.6508 H   0  0  0  0  0  0  0  0  0  0  0  0
    3.0062   -1.0334   -0.2800 H   0  0  0  0  0  0  0  0  0  0  0  0
    1.2152    1.4324    0.6838 H   0  0  0  0  0  0  0  0  0  0  0  0
   -3.2461    0.0228   -0.0302 H   0  0  0  0  0  0  0  0  0  0  0  0
  1  2  1  0  0  0  0
  2  3  1  0  0  0  0
  3  4  1  0  0  0  0
  2  5  1  0  0  0  0
  1  6  1  0  0  0  0
  1  7  1  0  0  0  0
  1  8  1  0  0  0  0
  2  9  1  0  0  0  0
  3 10  1  0  0  0  0
  3 11  1  0  0  0  0
  4 12  1  0  0  0  0
  5 13  1  0  0  0  0
  6 14  1  0  0  0  0
M  END
