14
 xtb: 6.7.1 (edcfbbe)
C           -1.03382073293835       -0.13376100953002        0.79049661897662
C            0.22799295149899        0.57071743371226        0.33265929413472
C            1.15122457774891       -0.30736411009240       -0.50535728242370
O            1.50273001803195       -1.46601737997699        0.26622488794075
O           -0.08235825726959        1.75670645162628       -0.41885739139267
O           -1.75236982109207       -0.58274899928081       -0.37214449764629
H           -1.64293552890592        0.57248436655392        1.36934058306200
H           -0.76978705918380       -0.98012283256292        1.43809715269614
H            0.76414169037462        0.90679577160519        1.22781819968843
H            2.04562179157212        0.27434366412181       -0.76457977341091
H            0.64382308381943       -0.59764141664155       -1.43587437749253
H            2.08632412346650       -2.00811314190166       -0.27869521771336
H           -0.66453749045564        1.48442101596807       -1.14248688814534
H           -2.63417899795758       -0.84790141484820       -0.08563604965288
