 xtb: 6.7.1 (edcfbbe)
          04112511103D

 14 13  0     0  0            999 V2000
   -3.8400   -0.7701   -0.0890 C   0  0  0  0  0  0  0  0  0  0  0  0
   -2.7358    0.1134    0.4791 C   0  0  0  0  0  0  0  0  0  0  0  0
   -1.3641   -0.3018   -0.0544 C   0  0  0  0  0  0  0  0  0  0  0  0
   -0.2791    0.5865    0.5204 C   0  0  0  0  0  0  0  0  0  0  0  0
    1.5026    0.0707   -0.1528 Br  0  0  0  0  0  0  0  0  0  0  0  0
   -3.6742   -1.8098    0.1825 H   0  0  0  0  0  0  0  0  0  0  0  0
   -4.8071   -0.4627    0.2994 H   0  0  0  0  0  0  0  0  0  0  0  0
   -3.8656   -0.6988   -1.1736 H   0  0  0  0  0  0  0  0  0  0  0  0
   -2.7367    0.0428    1.5687 H   0  0  0  0  0  0  0  0  0  0  0  0
   -2.9280    1.1544    0.2116 H   0  0  0  0  0  0  0  0  0  0  0  0
   -1.1668   -1.3423    0.2132 H   0  0  0  0  0  0  0  0  0  0  0  0
   -1.3581   -0.2302   -1.1443 H   0  0  0  0  0  0  0  0  0  0  0  0
   -0.2165    0.5047    1.6042 H   0  0  0  0  0  0  0  0  0  0  0  0
   -0.4097    1.6282    0.2324 H   0  0  0  0  0  0  0  0  0  0  0  0
  1  2  1  0  0  0  0
  2  3  1  0  0  0  0
  3  4  1  0  0  0  0
  4  5  1  0  0  0  0
  1  6  1  0  0  0  0
  1  7  1  0  0  0  0
  1  8  1  0  0  0  0
  2  9  1  0  0  0  0
  2 10  1  0  0  0  0
  3 11  1  0  0  0  0
  3 12  1  0  0  0  0
  4 13  1  0  0  0  0
  4 14  1  0  0  0  0
M  END
