 xtb: 6.7.1 (edcfbbe)
          04072508503D

 19 19  0     0  0            999 V2000
   -2.6968    0.2931   -0.0460 C   0  0  0  0  0  0  0  0  0  0  0  0
   -2.3343   -1.0118    0.2420 C   0  0  0  0  0  0  0  0  0  0  0  0
   -0.9990   -1.3715    0.2675 C   0  0  0  0  0  0  0  0  0  0  0  0
    0.0002   -0.4406    0.0030 C   0  0  0  0  0  0  0  0  0  0  0  0
   -0.3778    0.8648   -0.2864 C   0  0  0  0  0  0  0  0  0  0  0  0
   -1.7130    1.2300   -0.3085 C   0  0  0  0  0  0  0  0  0  0  0  0
    1.4411   -0.8784    0.0231 C   0  0  0  0  0  0  0  0  0  0  0  0
    2.4282    0.1594    0.5814 C   0  0  0  0  0  0  0  0  0  0  0  0
    3.0852    0.9140   -0.4167 O   0  0  0  0  0  0  0  0  0  0  0  0
   -3.7380    0.5778   -0.0640 H   0  0  0  0  0  0  0  0  0  0  0  0
   -3.0936   -1.7507    0.4512 H   0  0  0  0  0  0  0  0  0  0  0  0
   -0.7257   -2.3915    0.4964 H   0  0  0  0  0  0  0  0  0  0  0  0
    0.3687    1.6171   -0.4911 H   0  0  0  0  0  0  0  0  0  0  0  0
   -1.9845    2.2508   -0.5332 H   0  0  0  0  0  0  0  0  0  0  0  0
    1.5172   -1.7910    0.6153 H   0  0  0  0  0  0  0  0  0  0  0  0
    1.7585   -1.1273   -0.9941 H   0  0  0  0  0  0  0  0  0  0  0  0
    1.9180    0.8253    1.2900 H   0  0  0  0  0  0  0  0  0  0  0  0
    3.2372   -0.3477    1.1116 H   0  0  0  0  0  0  0  0  0  0  0  0
    2.4311    1.3939   -0.9429 H   0  0  0  0  0  0  0  0  0  0  0  0
  1  2  4  0  0  0  0
  2  3  4  0  0  0  0
  3  4  4  0  0  0  0
  4  5  4  0  0  0  0
  1  6  4  0  0  0  0
  5  6  4  0  0  0  0
  4  7  1  0  0  0  0
  7  8  1  0  0  0  0
  8  9  1  0  0  0  0
  1 10  1  0  0  0  0
  2 11  1  0  0  0  0
  3 12  1  0  0  0  0
  5 13  1  0  0  0  0
  6 14  1  0  0  0  0
  7 15  1  0  0  0  0
  7 16  1  0  0  0  0
  8 17  1  0  0  0  0
  8 18  1  0  0  0  0
  9 19  1  0  0  0  0
M  END
