29
 xtb: 6.7.1 (edcfbbe)
C           -2.79243563275506        1.04666317361996        0.25687525467418
C           -2.24683131454691       -0.12914405386447       -0.55616470395099
C           -2.61230089426353       -1.45867930231056        0.10697835171059
C           -0.73526061943376       -0.00413190916010       -0.82902679232874
C            0.14888684216256       -0.01699586614029        0.41829852539965
C            1.67022642809408        0.11040360216312        0.17598637233755
C            2.18992238882597       -1.05568034762497       -0.67350433028042
C            2.00641480178052        1.43633129873245       -0.51691634305879
C            2.36747883343560        0.07574823700207        1.54176554882191
H           -2.41254560860001        1.03285261824631        1.28434822494461
H           -3.88592688070110        1.00553470405121        0.31127422688465
H           -2.51321111209065        2.00626270170572       -0.19301255496551
H           -2.73878385642411       -0.10586037584889       -1.53889738927895
H           -2.22955135712282       -1.51321195206186        1.13206228566881
H           -3.70000254616863       -1.58059924402569        0.15641729367206
H           -2.20340941931847       -2.30850458204444       -0.45145195618326
H           -0.44314689317416       -0.82648183206903       -1.49446044918991
H           -0.56897236794156        0.92604081278482       -1.38714654747327
H           -0.01982460587271       -0.94850635339803        0.97496782341703
H           -0.14915098536008        0.80354192355470        1.08463696581795
H            1.78004899781927       -1.03273957350514       -1.68829853511067
H            3.28205578464775       -1.01085129650268       -0.75664973425340
H            1.92499164307160       -2.01901363279112       -0.22145586363505
H            1.59898117435076        1.47840519193697       -1.53205747773148
H            1.60426333651307        2.28665024735681        0.04674499224284
H            3.09266215127244        1.56409440727791       -0.59063023561623
H            2.15582993700569       -0.86330524117304        2.06654090925114
H            2.02726114046149        0.90200446407583        2.17706011039671
H            3.45425495533238        0.16182091826481        1.42824359864646
