 xtb: 6.7.1 (edcfbbe)
          04112511193D

 14 13  0     0  0            999 V2000
   -1.3810    0.0111   -0.5449 C   0  0  0  0  0  0  0  0  0  0  0  0
   -0.0200    0.1134    0.1653 C   0  0  0  0  0  0  0  0  0  0  0  0
    1.0603   -0.7285   -0.5305 C   0  0  0  0  0  0  0  0  0  0  0  0
    2.2795   -0.6793    0.1714 O   0  0  0  0  0  0  0  0  0  0  0  0
    0.4356    1.4427    0.3041 O   0  0  0  0  0  0  0  0  0  0  0  0
   -2.3678   -0.2819    0.4195 O   0  0  0  0  0  0  0  0  0  0  0  0
   -1.3422   -0.7811   -1.3035 H   0  0  0  0  0  0  0  0  0  0  0  0
   -1.6031    0.9656   -1.0389 H   0  0  0  0  0  0  0  0  0  0  0  0
   -0.1513   -0.2479    1.1908 H   0  0  0  0  0  0  0  0  0  0  0  0
    1.2052   -0.3608   -1.5582 H   0  0  0  0  0  0  0  0  0  0  0  0
    0.7616   -1.7770   -0.5661 H   0  0  0  0  0  0  0  0  0  0  0  0
    2.4022    0.2298    0.4890 H   0  0  0  0  0  0  0  0  0  0  0  0
    0.5097    1.8517   -0.5711 H   0  0  0  0  0  0  0  0  0  0  0  0
   -3.2356   -0.3267   -0.0057 H   0  0  0  0  0  0  0  0  0  0  0  0
  1  2  1  0  0  0  0
  2  3  1  0  0  0  0
  3  4  1  0  0  0  0
  2  5  1  0  0  0  0
  1  6  1  0  0  0  0
  1  7  1  0  0  0  0
  1  8  1  0  0  0  0
  2  9  1  0  0  0  0
  3 10  1  0  0  0  0
  3 11  1  0  0  0  0
  4 12  1  0  0  0  0
  5 13  1  0  0  0  0
  6 14  1  0  0  0  0
M  END
