 xtb: 6.7.1 (edcfbbe)
          04112512063D

 22 22  0     0  0            999 V2000
   -2.1313   -1.0680    0.9207 C   0  0  0  0  0  0  0  0  0  0  0  0
   -2.0923   -0.2027   -0.3361 C   0  0  0  0  0  0  0  0  0  0  0  0
   -3.4870    0.3242   -0.6620 C   0  0  0  0  0  0  0  0  0  0  0  0
   -1.1169    0.9775   -0.1640 C   0  0  0  0  0  0  0  0  0  0  0  0
    0.2915    0.5026   -0.0139 C   0  0  0  0  0  0  0  0  0  0  0  0
    0.9177    0.3988    1.2307 C   0  0  0  0  0  0  0  0  0  0  0  0
    2.1535   -0.0536    1.3665 N   0  0  0  0  0  0  0  0  0  0  0  0
    2.7899   -0.4097    0.2572 C   0  0  0  0  0  0  0  0  0  0  0  0
    2.1821   -0.3041   -0.9853 C   0  0  0  0  0  0  0  0  0  0  0  0
    0.9443    0.1475   -1.1190 N   0  0  0  0  0  0  0  0  0  0  0  0
   -2.4699   -0.4837    1.7736 H   0  0  0  0  0  0  0  0  0  0  0  0
   -1.1461   -1.4707    1.1480 H   0  0  0  0  0  0  0  0  0  0  0  0
   -2.8156   -1.9014    0.7828 H   0  0  0  0  0  0  0  0  0  0  0  0
   -1.7369   -0.8111   -1.1743 H   0  0  0  0  0  0  0  0  0  0  0  0
   -3.4719    0.9152   -1.5740 H   0  0  0  0  0  0  0  0  0  0  0  0
   -4.1791   -0.5026   -0.7998 H   0  0  0  0  0  0  0  0  0  0  0  0
   -3.8546    0.9485    0.1492 H   0  0  0  0  0  0  0  0  0  0  0  0
   -1.4055    1.5612    0.7109 H   0  0  0  0  0  0  0  0  0  0  0  0
   -1.1761    1.6063   -1.0528 H   0  0  0  0  0  0  0  0  0  0  0  0
    0.4148    0.6884    2.1428 H   0  0  0  0  0  0  0  0  0  0  0  0
    3.7974   -0.7793    0.3784 H   0  0  0  0  0  0  0  0  0  0  0  0
    2.6896   -0.5833   -1.8977 H   0  0  0  0  0  0  0  0  0  0  0  0
  1  2  1  0  0  0  0
  2  3  1  0  0  0  0
  2  4  1  0  0  0  0
  4  5  1  0  0  0  0
  5  6  4  0  0  0  0
  6  7  4  0  0  0  0
  7  8  4  0  0  0  0
  8  9  4  0  0  0  0
  5 10  4  0  0  0  0
  9 10  4  0  0  0  0
  1 11  1  0  0  0  0
  1 12  1  0  0  0  0
  1 13  1  0  0  0  0
  2 14  1  0  0  0  0
  3 15  1  0  0  0  0
  3 16  1  0  0  0  0
  3 17  1  0  0  0  0
  4 18  1  0  0  0  0
  4 19  1  0  0  0  0
  6 20  1  0  0  0  0
  8 21  1  0  0  0  0
  9 22  1  0  0  0  0
M  END
