  8
 
 C         -0.8119999557        0.0037959399       -0.6346006162
 C          0.5897463021       -0.0000488777       -0.0367265120
 Cl         1.4488734474        1.4614649895       -0.5645572465
 Cl         1.4701587487       -1.4232756341       -0.6314935461
 Cl         0.5234341095       -0.0403820241        1.7285376951
 Cl        -1.6733217271       -1.4648997819       -0.1492861772
 Cl        -1.6936243747        1.4369586093       -0.0829772238
 H         -0.7624793126        0.0291746695       -1.7267216549
           8
        -27.52827166
 C         -0.7838411988        0.0001908611        0.6680257139
 C          0.5940310145        0.0001112889        0.0191742165
 Cl         0.4642083922       -0.0007870455       -1.7432137340
 Cl         1.4846331005       -1.4423779002        0.5483842520
 Cl         1.4846717164        1.4427875658        0.5478141203
 Cl        -1.6746609935        1.4512009586        0.1818105908
 Cl        -1.6747854839       -1.4509357974        0.1824195167
 H         -0.6951162961        0.0003466245        1.7577410974
