  8
 
 C         -0.4930000000        0.4030000000       -0.4760000000
 C          0.4490000000       -0.4710000000        0.3770000000
 Cl         1.8650000000       -1.0080000000       -0.5970000000
 Cl        -0.3990000000       -1.9620000000        0.9250000000
 Cl         1.0590000000        0.3920000000        1.8270000000
 Cl        -1.9280000000        0.9730000000        0.4360000000
 Cl         0.3270000000        1.8410000000       -1.1650000000
 H         -0.8780000000       -0.1670000000       -1.3280000000
