 xtb: 6.7.1 (edcfbbe)
          04112512153D

 21 20  0     0  0            999 V2000
    2.0717    0.0429   -1.1523 C   0  0  0  0  0  0  0  0  0  0  0  0
    1.6749   -0.5109    0.2123 C   0  0  0  0  0  0  0  0  0  0  0  0
    0.2754   -0.1111    0.7161 C   0  0  0  0  0  0  0  0  0  0  0  0
    0.1258   -0.6348    1.6691 H   0  0  0  0  0  0  0  0  0  0  0  0
   -0.8735   -0.5316   -0.2386 C   0  0  0  0  0  0  0  0  0  0  0  0
   -2.0934   -0.9632    0.5765 C   0  0  0  0  0  0  0  0  0  0  0  0
   -1.2872    0.5807   -1.2032 C   0  0  0  0  0  0  0  0  0  0  0  0
    0.2185    1.2545    1.0804 O   0  0  0  0  0  0  0  0  0  0  0  0
    2.0194    1.1291   -1.1696 H   0  0  0  0  0  0  0  0  0  0  0  0
    1.4351   -0.3563   -1.9371 H   0  0  0  0  0  0  0  0  0  0  0  0
    3.0974   -0.2434   -1.3726 H   0  0  0  0  0  0  0  0  0  0  0  0
    1.7207   -1.6008    0.1853 H   0  0  0  0  0  0  0  0  0  0  0  0
    2.3942   -0.1663    0.9593 H   0  0  0  0  0  0  0  0  0  0  0  0
   -0.5220   -1.3921   -0.8164 H   0  0  0  0  0  0  0  0  0  0  0  0
   -1.8574   -1.8225    1.1999 H   0  0  0  0  0  0  0  0  0  0  0  0
   -2.4151   -0.1476    1.2207 H   0  0  0  0  0  0  0  0  0  0  0  0
   -2.9163   -1.2309   -0.0819 H   0  0  0  0  0  0  0  0  0  0  0  0
   -2.0543    0.2078   -1.8778 H   0  0  0  0  0  0  0  0  0  0  0  0
   -0.4522    0.9309   -1.8027 H   0  0  0  0  0  0  0  0  0  0  0  0
   -1.7036    1.4189   -0.6488 H   0  0  0  0  0  0  0  0  0  0  0  0
    0.4259    1.7879    0.3012 H   0  0  0  0  0  0  0  0  0  0  0  0
  1  2  1  0  0  0  0
  2  3  1  0  0  0  0
  3  4  1  0  0  0  0
  3  5  1  0  0  0  0
  5  6  1  0  0  0  0
  5  7  1  0  0  0  0
  3  8  1  0  0  0  0
  1  9  1  0  0  0  0
  1 10  1  0  0  0  0
  1 11  1  0  0  0  0
  2 12  1  0  0  0  0
  2 13  1  0  0  0  0
  5 14  1  0  0  0  0
  6 15  1  0  0  0  0
  6 16  1  0  0  0  0
  6 17  1  0  0  0  0
  7 18  1  0  0  0  0
  7 19  1  0  0  0  0
  7 20  1  0  0  0  0
  8 21  1  0  0  0  0
M  END
