 xtb: 6.7.1 (edcfbbe)
          04112511523D

 13 12  0     0  0            999 V2000
   -1.9711   -0.2635    0.4658 C   0  0  0  0  0  0  0  0  0  0  0  0
   -1.0033   -0.2136   -0.5640 O   0  0  0  0  0  0  0  0  0  0  0  0
   -0.0402    0.8160   -0.4214 C   0  0  0  0  0  0  0  0  0  0  0  0
    1.1065    0.4192    0.5148 C   0  0  0  0  0  0  0  0  0  0  0  0
    1.8764   -0.6370   -0.0131 O   0  0  0  0  0  0  0  0  0  0  0  0
   -2.5144    0.6848    0.5308 H   0  0  0  0  0  0  0  0  0  0  0  0
   -1.5215   -0.4864    1.4376 H   0  0  0  0  0  0  0  0  0  0  0  0
   -2.6565   -1.0614    0.1910 H   0  0  0  0  0  0  0  0  0  0  0  0
    0.3590    0.9791   -1.4255 H   0  0  0  0  0  0  0  0  0  0  0  0
   -0.5133    1.7373   -0.0618 H   0  0  0  0  0  0  0  0  0  0  0  0
    0.7104    0.1385    1.5005 H   0  0  0  0  0  0  0  0  0  0  0  0
    1.7872    1.2630    0.6384 H   0  0  0  0  0  0  0  0  0  0  0  0
    1.2709   -1.3318   -0.3121 H   0  0  0  0  0  0  0  0  0  0  0  0
  1  2  1  0  0  0  0
  2  3  1  0  0  0  0
  3  4  1  0  0  0  0
  4  5  1  0  0  0  0
  1  6  1  0  0  0  0
  1  7  1  0  0  0  0
  1  8  1  0  0  0  0
  3  9  1  0  0  0  0
  3 10  1  0  0  0  0
  4 11  1  0  0  0  0
  4 12  1  0  0  0  0
  5 13  1  0  0  0  0
M  END
