 xtb: 6.7.1 (edcfbbe)
          04112511523D

 18 17  0     0  0            999 V2000
    1.9457   -1.3827   -0.1995 C   0  0  0  0  0  0  0  0  0  0  0  0
    1.0599   -0.2531    0.3244 C   0  0  0  0  0  0  0  0  0  0  0  0
    1.6965    1.0982    0.0051 C   0  0  0  0  0  0  0  0  0  0  0  0
   -0.3421   -0.3780   -0.2783 C   0  0  0  0  0  0  0  0  0  0  0  0
   -1.3635    0.5762    0.3347 C   0  0  0  0  0  0  0  0  0  0  0  0
   -2.6441    0.2362   -0.1661 O   0  0  0  0  0  0  0  0  0  0  0  0
    1.5198   -2.3519    0.0481 H   0  0  0  0  0  0  0  0  0  0  0  0
    2.9391   -1.3216    0.2382 H   0  0  0  0  0  0  0  0  0  0  0  0
    2.0411   -1.3156   -1.2808 H   0  0  0  0  0  0  0  0  0  0  0  0
    0.9778   -0.3523    1.4129 H   0  0  0  0  0  0  0  0  0  0  0  0
    1.7357    1.2512   -1.0710 H   0  0  0  0  0  0  0  0  0  0  0  0
    2.7112    1.1353    0.3941 H   0  0  0  0  0  0  0  0  0  0  0  0
    1.1328    1.9128    0.4512 H   0  0  0  0  0  0  0  0  0  0  0  0
   -0.7157   -1.3927   -0.1248 H   0  0  0  0  0  0  0  0  0  0  0  0
   -0.3028   -0.2029   -1.3550 H   0  0  0  0  0  0  0  0  0  0  0  0
   -1.3478    0.4773    1.4293 H   0  0  0  0  0  0  0  0  0  0  0  0
   -1.1239    1.6140    0.0722 H   0  0  0  0  0  0  0  0  0  0  0  0
   -3.3033    0.8404    0.2000 H   0  0  0  0  0  0  0  0  0  0  0  0
  1  2  1  0  0  0  0
  2  3  1  0  0  0  0
  2  4  1  0  0  0  0
  4  5  1  0  0  0  0
  5  6  1  0  0  0  0
  1  7  1  0  0  0  0
  1  8  1  0  0  0  0
  1  9  1  0  0  0  0
  2 10  1  0  0  0  0
  3 11  1  0  0  0  0
  3 12  1  0  0  0  0
  3 13  1  0  0  0  0
  4 14  1  0  0  0  0
  4 15  1  0  0  0  0
  5 16  1  0  0  0  0
  5 17  1  0  0  0  0
  6 18  1  0  0  0  0
M  END
