18
 xtb: 6.7.1 (edcfbbe)
C            2.82982089496699       -0.33258586467133        0.16611711894669
C            1.42575530182585       -0.52812994527009       -0.39959481413932
C            0.39268112447352        0.33507277787196        0.32327941672965
C           -0.99991319141445        0.26882877421412       -0.28739117494944
H           -0.93799579132702        0.56135171649482       -1.34742734707112
C           -1.64486855047966       -1.10288452078868       -0.18207974437263
O           -1.79875776646838        1.25374472907010        0.41879995567318
H            3.55975680329927       -0.96421322074363       -0.35028928965375
H            2.86146574198431       -0.58649589926041        1.23177643168156
H            3.15367281629297        0.70909035556670        0.06214695606337
H            1.42091627452642       -0.27930843113604       -1.46907092387326
H            1.14762002399454       -1.58586130335149       -0.32275993561506
H            0.33041805327557        0.03588912553667        1.37879222214207
H            0.72401172602515        1.38160581267268        0.30387835979559
H           -1.09732565671760       -1.84050034719927       -0.77684833395862
H           -1.66316210777102       -1.43936572946590        0.86069151420086
H           -2.67345531542497       -1.07169755681144       -0.55831665695550
H           -2.69521860114289        1.20181069901306        0.06274366797008
