17
 xtb: 6.7.1 (edcfbbe)
C           -3.00559854671302        0.03635292003056        0.06296048223062
C           -1.66243639521903        0.68837244111489        0.34972111894023
C           -0.49298920627450       -0.13570727475488       -0.11027150171297
O           -0.56551273366521       -1.16241170546726       -0.76560411358679
O            0.67600533306727        0.40372919100444        0.28483289205107
C            1.89149924887186       -0.29827913120926       -0.12739813708265
C            3.05940042050804        0.45682531836989        0.45430143119259
H           -3.81507658514962        0.68648520422884        0.40518529397630
H           -3.13999434275943       -0.13944611181641       -1.00769504313472
H           -3.09655763768017       -0.92276022758371        0.58070185700343
H           -1.53160753995823        0.88938280738780        1.41875396701234
H           -1.58079226306639        1.66192674246597       -0.15009715061010
H            1.84157685585072       -1.32503327068359        0.24682674917658
H            1.92133735580621       -0.32027611688133       -1.22103051134588
H            3.98773610672798       -0.04456265093155        0.16518952524304
H            3.09180597440011        1.48340480738128        0.07837212549923
H            3.00737777847719        0.47926079736408        1.54660860082875
