 xtb: 6.7.1 (edcfbbe)
          04112511193D

 14 13  0     0  0            999 V2000
   -1.4462    0.3536   -0.2960 C   0  0  0  0  0  0  0  0  0  0  0  0
   -0.0176    0.3477    0.2903 C   0  0  0  0  0  0  0  0  0  0  0  0
    0.8273   -0.7927   -0.3023 C   0  0  0  0  0  0  0  0  0  0  0  0
    2.1807   -0.7309    0.0795 O   0  0  0  0  0  0  0  0  0  0  0  0
    0.5991    1.6016    0.1068 O   0  0  0  0  0  0  0  0  0  0  0  0
   -2.2329   -0.7301    0.1367 O   0  0  0  0  0  0  0  0  0  0  0  0
   -1.3977    0.3935   -1.3912 H   0  0  0  0  0  0  0  0  0  0  0  0
   -1.9516    1.2541    0.0626 H   0  0  0  0  0  0  0  0  0  0  0  0
   -0.0942    0.2244    1.3770 H   0  0  0  0  0  0  0  0  0  0  0  0
    0.8346   -0.7231   -1.3942 H   0  0  0  0  0  0  0  0  0  0  0  0
    0.3906   -1.7561   -0.0089 H   0  0  0  0  0  0  0  0  0  0  0  0
    2.2438   -0.7066    1.0441 H   0  0  0  0  0  0  0  0  0  0  0  0
    0.8407    1.7092   -0.8242 H   0  0  0  0  0  0  0  0  0  0  0  0
   -1.9641   -1.5381   -0.3204 H   0  0  0  0  0  0  0  0  0  0  0  0
  1  2  1  0  0  0  0
  2  3  1  0  0  0  0
  3  4  1  0  0  0  0
  2  5  1  0  0  0  0
  1  6  1  0  0  0  0
  1  7  1  0  0  0  0
  1  8  1  0  0  0  0
  2  9  1  0  0  0  0
  3 10  1  0  0  0  0
  3 11  1  0  0  0  0
  4 12  1  0  0  0  0
  5 13  1  0  0  0  0
  6 14  1  0  0  0  0
M  END
