22
 xtb: 6.7.1 (edcfbbe)
C           -2.65770839382125       -0.50472451216906        1.46726598663713
C           -2.09596722842225       -0.30765290710643        0.05874925979150
C           -3.23258158034495       -0.06319110499075       -0.93415621213388
C           -1.07044443482800        0.86166029871928        0.00189439317290
C            0.36387822826627        0.42646851608606       -0.06457897284778
C            0.91349624212469       -0.43935866937157        0.89053235999598
N            2.17926237651729       -0.85785256793051        0.85108059281213
C            2.91910824256262       -0.39735840579577       -0.16818845889116
C            2.39221722092906        0.46437595595089       -1.11545905330693
N            1.11936783398333        0.88145505361106       -1.07644454716481
H           -3.33755895086328       -1.36277750339932        1.49900888716007
H           -3.22063648540970        0.38389057062467        1.77724529501705
H           -1.86742363829554       -0.67372952387097        2.20525087007397
H           -1.57836341081000       -1.22934485144315       -0.23933276850696
H           -2.85438046017230        0.01944590701697       -1.95834032354816
H           -3.95925376793813       -0.88214746374202       -0.90412634502763
H           -3.76198859524879        0.86614964085984       -0.69224750825524
H           -1.20639111481599        1.50028528969928        0.88457741091116
H           -1.26312411149135        1.48779256246358       -0.87313490500885
H            0.30500348371473       -0.80135724410960        1.71523024271099
H            3.95415642944613       -0.72258222893020       -0.22676031789899
H            3.01046879885343        0.83138216681651       -1.93111822374971
