 xtb: 6.7.1 (edcfbbe)
          04112512043D

 14 13  0     0  0            999 V2000
    2.2413   -0.2195   -0.0953 C   0  0  0  0  0  0  0  0  0  0  0  0
    0.8879   -0.2991    0.2892 O   0  0  0  0  0  0  0  0  0  0  0  0
    0.0886    0.7323   -0.2607 C   0  0  0  0  0  0  0  0  0  0  0  0
   -1.3470    0.5597    0.2550 C   0  0  0  0  0  0  0  0  0  0  0  0
   -1.9781   -0.6888   -0.1308 N   0  0  0  0  0  0  0  0  0  0  0  0
    2.3452   -0.3000   -1.1834 H   0  0  0  0  0  0  0  0  0  0  0  0
    2.7450   -1.0539    0.3860 H   0  0  0  0  0  0  0  0  0  0  0  0
    2.6864    0.7251    0.2363 H   0  0  0  0  0  0  0  0  0  0  0  0
    0.4823    1.7142    0.0389 H   0  0  0  0  0  0  0  0  0  0  0  0
    0.1114    0.6707   -1.3605 H   0  0  0  0  0  0  0  0  0  0  0  0
   -1.3299    0.6001    1.3462 H   0  0  0  0  0  0  0  0  0  0  0  0
   -1.9540    1.3868   -0.1198 H   0  0  0  0  0  0  0  0  0  0  0  0
   -1.4124   -1.4577    0.2144 H   0  0  0  0  0  0  0  0  0  0  0  0
   -1.9974   -0.7616   -1.1434 H   0  0  0  0  0  0  0  0  0  0  0  0
  1  2  1  0  0  0  0
  2  3  1  0  0  0  0
  3  4  1  0  0  0  0
  4  5  1  0  0  0  0
  1  6  1  0  0  0  0
  1  7  1  0  0  0  0
  1  8  1  0  0  0  0
  3  9  1  0  0  0  0
  3 10  1  0  0  0  0
  4 11  1  0  0  0  0
  4 12  1  0  0  0  0
  5 13  1  0  0  0  0
  5 14  1  0  0  0  0
M  END
