17
 xtb: 6.7.1 (edcfbbe)
C           -2.53199901633597        1.02015871427630       -0.31059381188440
C           -1.79606680435981        0.04726076257436        0.62231676512880
C           -0.54381723762160       -0.44353875790066       -0.04491387528317
O           -0.51647784143489       -1.30029480761374       -0.91620281838708
O            0.55429881029864        0.20236583331339        0.38615093160960
C            1.81574470593936       -0.15297118560812       -0.26574373729973
C            2.89624276588429        0.68674083623367        0.36750100959805
H           -1.91178205933116        1.89408365426293       -0.53060363499365
H           -2.79362500539344        0.53227822263830       -1.25373477840503
H           -3.45327089371536        1.36450755912229        0.16607003545001
H           -2.42646064494653       -0.82253311808486        0.82714899311226
H           -1.54859460108501        0.53758022861244        1.56636411276990
H            1.98919374530989       -1.22302346952258       -0.11839501697014
H            1.71557172304674        0.04657751635767       -1.33685932927524
H            2.70356369334094        1.75327459621944        0.21992671462038
H            2.97450898644162        0.48382434510252        1.43944460704095
H            3.85507772780175        0.44290755887029       -0.09914978752154
