 28

C      4.083000    -1.033000     3.744000
C      3.462000    -0.056000     2.759000
C      4.496000     0.465000     1.760000
C      3.864000     1.448000     0.771000
C      4.856000     2.003000    -0.256000
C      4.283000     2.994000    -1.274000
C      5.323000     3.513000    -2.272000
C      4.730000     4.497000    -3.276000
N      5.706000     4.983000    -4.212000
H      3.327000    -1.393000     4.449000
H      4.503000    -1.900000     3.224000
H      4.883000    -0.555000     4.319000
H      3.023000     0.782000     3.312000
H      2.646000    -0.554000     2.223000
H      5.312000     0.960000     2.300000
H      4.930000    -0.384000     1.220000
H      3.020000     0.971000     0.260000
H      3.445000     2.296000     1.328000
H      5.679000     2.488000     0.285000
H      5.303000     1.165000    -0.804000
H      3.813000     3.837000    -0.755000
H      3.479000     2.483000    -1.818000
H      5.775000     2.667000    -2.804000
H      6.127000     4.025000    -1.732000
H      4.330000     5.370000    -2.751000
H      3.916000     4.040000    -3.847000
H      5.926000     4.430000    -5.026000
H      6.300000     5.754000    -3.948000
