 xtb: 6.7.1 (edcfbbe)
          04112511443D

 25 25  0     0  0            999 V2000
    3.7064    0.2939   -0.5029 C   0  0  0  0  0  0  0  0  0  0  0  0
    2.5075   -0.2096    0.2393 C   0  0  0  0  0  0  0  0  0  0  0  0
    2.6094   -0.8844    1.3736 C   0  0  0  0  0  0  0  0  0  0  0  0
    1.1687    0.1283   -0.3836 C   0  0  0  0  0  0  0  0  0  0  0  0
    1.3537    0.5349   -1.3814 H   0  0  0  0  0  0  0  0  0  0  0  0
    0.2466   -1.1010   -0.5309 C   0  0  0  0  0  0  0  0  0  0  0  0
   -1.0525   -0.9834    0.2773 C   0  0  0  0  0  0  0  0  0  0  0  0
   -1.6970    0.3371   -0.0106 C   0  0  0  0  0  0  0  0  0  0  0  0
   -0.9194    1.4314    0.0605 C   0  0  0  0  0  0  0  0  0  0  0  0
    0.5017    1.2588    0.4419 C   0  0  0  0  0  0  0  0  0  0  0  0
   -3.0917    0.4105   -0.3846 C   0  0  0  0  0  0  0  0  0  0  0  0
   -3.8517   -0.5362   -0.4915 O   0  0  0  0  0  0  0  0  0  0  0  0
    3.7454   -0.1532   -1.4954 H   0  0  0  0  0  0  0  0  0  0  0  0
    3.6453    1.3741   -0.6273 H   0  0  0  0  0  0  0  0  0  0  0  0
    4.6243    0.0529    0.0256 H   0  0  0  0  0  0  0  0  0  0  0  0
    1.7474   -1.2451    1.9085 H   0  0  0  0  0  0  0  0  0  0  0  0
    3.5651   -1.1118    1.8135 H   0  0  0  0  0  0  0  0  0  0  0  0
   -0.0227   -1.2210   -1.5815 H   0  0  0  0  0  0  0  0  0  0  0  0
    0.7767   -2.0021   -0.2235 H   0  0  0  0  0  0  0  0  0  0  0  0
   -1.7364   -1.7941    0.0232 H   0  0  0  0  0  0  0  0  0  0  0  0
   -0.8263   -1.0481    1.3443 H   0  0  0  0  0  0  0  0  0  0  0  0
   -1.3040    2.4165   -0.1560 H   0  0  0  0  0  0  0  0  0  0  0  0
    1.0662    2.1823    0.3244 H   0  0  0  0  0  0  0  0  0  0  0  0
    0.5432    0.9674    1.4955 H   0  0  0  0  0  0  0  0  0  0  0  0
   -3.4603    1.4356   -0.5801 H   0  0  0  0  0  0  0  0  0  0  0  0
  1  2  1  0  0  0  0
  2  3  2  0  0  0  0
  2  4  1  0  0  0  0
  4  5  1  0  0  0  0
  4  6  1  0  0  0  0
  6  7  1  0  0  0  0
  7  8  1  0  0  0  0
  8  9  2  0  0  0  0
  4 10  1  0  0  0  0
  9 10  1  0  0  0  0
  8 11  1  0  0  0  0
 11 12  2  0  0  0  0
  1 13  1  0  0  0  0
  1 14  1  0  0  0  0
  1 15  1  0  0  0  0
  3 16  1  0  0  0  0
  3 17  1  0  0  0  0
  6 18  1  0  0  0  0
  6 19  1  0  0  0  0
  7 20  1  0  0  0  0
  7 21  1  0  0  0  0
  9 22  1  0  0  0  0
 10 23  1  0  0  0  0
 10 24  1  0  0  0  0
 11 25  1  0  0  0  0
M  END
