 xtb: 6.7.1 (edcfbbe)
          04112512203D

 18 17  0     0  0            999 V2000
   -1.9433    1.4694    0.0798 C   0  0  0  0  0  0  0  0  0  0  0  0
   -1.4825    0.0913   -0.3817 C   0  0  0  0  0  0  0  0  0  0  0  0
   -0.1579   -0.3599    0.2464 C   0  0  0  0  0  0  0  0  0  0  0  0
   -0.1830   -0.1467    1.3208 H   0  0  0  0  0  0  0  0  0  0  0  0
    0.0327   -1.8640    0.0461 C   0  0  0  0  0  0  0  0  0  0  0  0
    1.0204    0.4191   -0.3561 C   0  0  0  0  0  0  0  0  0  0  0  0
    2.2345    0.2482    0.3444 O   0  0  0  0  0  0  0  0  0  0  0  0
   -2.0341    1.4958    1.1633 H   0  0  0  0  0  0  0  0  0  0  0  0
   -1.2445    2.2443   -0.2239 H   0  0  0  0  0  0  0  0  0  0  0  0
   -2.9138    1.7017   -0.3518 H   0  0  0  0  0  0  0  0  0  0  0  0
   -1.3812    0.0841   -1.4693 H   0  0  0  0  0  0  0  0  0  0  0  0
   -2.2525   -0.6362   -0.1170 H   0  0  0  0  0  0  0  0  0  0  0  0
   -0.8053   -2.4086    0.4738 H   0  0  0  0  0  0  0  0  0  0  0  0
    0.9393   -2.2145    0.5333 H   0  0  0  0  0  0  0  0  0  0  0  0
    0.0900   -2.0998   -1.0148 H   0  0  0  0  0  0  0  0  0  0  0  0
    0.8251    1.4920   -0.3090 H   0  0  0  0  0  0  0  0  0  0  0  0
    1.1477    0.1377   -1.4109 H   0  0  0  0  0  0  0  0  0  0  0  0
    2.4989   -0.6802    0.2936 H   0  0  0  0  0  0  0  0  0  0  0  0
  1  2  1  0  0  0  0
  2  3  1  0  0  0  0
  3  4  1  0  0  0  0
  3  5  1  0  0  0  0
  3  6  1  0  0  0  0
  6  7  1  0  0  0  0
  1  8  1  0  0  0  0
  1  9  1  0  0  0  0
  1 10  1  0  0  0  0
  2 11  1  0  0  0  0
  2 12  1  0  0  0  0
  5 13  1  0  0  0  0
  5 14  1  0  0  0  0
  5 15  1  0  0  0  0
  6 16  1  0  0  0  0
  6 17  1  0  0  0  0
  7 18  1  0  0  0  0
M  END
