 xtb: 6.7.1 (edcfbbe)
          04112511103D

 18 17  0     0  0            999 V2000
    2.2891   -0.2368   -0.7585 C   0  0  0  0  0  0  0  0  0  0  0  0
    1.5332   -0.6265    0.5068 C   0  0  0  0  0  0  0  0  0  0  0  0
    0.3464    0.2880    0.8116 C   0  0  0  0  0  0  0  0  0  0  0  0
   -0.7713    0.2785   -0.2408 C   0  0  0  0  0  0  0  0  0  0  0  0
   -0.3683    0.5801   -1.2130 H   0  0  0  0  0  0  0  0  0  0  0  0
   -1.4434   -1.0880   -0.3661 C   0  0  0  0  0  0  0  0  0  0  0  0
   -1.7265    1.2884    0.0529 O   0  0  0  0  0  0  0  0  0  0  0  0
    1.6734   -0.3793   -1.6427 H   0  0  0  0  0  0  0  0  0  0  0  0
    3.1818   -0.8484   -0.8649 H   0  0  0  0  0  0  0  0  0  0  0  0
    2.5907    0.8072   -0.7145 H   0  0  0  0  0  0  0  0  0  0  0  0
    1.1921   -1.6594    0.4247 H   0  0  0  0  0  0  0  0  0  0  0  0
    2.2193   -0.5755    1.3552 H   0  0  0  0  0  0  0  0  0  0  0  0
   -0.0847   -0.0056    1.7730 H   0  0  0  0  0  0  0  0  0  0  0  0
    0.7018    1.3172    0.9065 H   0  0  0  0  0  0  0  0  0  0  0  0
   -2.3121   -1.0068   -1.0152 H   0  0  0  0  0  0  0  0  0  0  0  0
   -0.7571   -1.8103   -0.7962 H   0  0  0  0  0  0  0  0  0  0  0  0
   -1.7653   -1.4448    0.6103 H   0  0  0  0  0  0  0  0  0  0  0  0
   -2.1501    1.0778    0.8970 H   0  0  0  0  0  0  0  0  0  0  0  0
  1  2  1  0  0  0  0
  2  3  1  0  0  0  0
  3  4  1  0  0  0  0
  4  5  1  0  0  0  0
  4  6  1  0  0  0  0
  4  7  1  0  0  0  0
  1  8  1  0  0  0  0
  1  9  1  0  0  0  0
  1 10  1  0  0  0  0
  2 11  1  0  0  0  0
  2 12  1  0  0  0  0
  3 13  1  0  0  0  0
  3 14  1  0  0  0  0
  6 15  1  0  0  0  0
  6 16  1  0  0  0  0
  6 17  1  0  0  0  0
  7 18  1  0  0  0  0
M  END
