 xtb: 6.7.1 (edcfbbe)
          04112512423D

 17 16  0     0  0            999 V2000
   -2.4344    1.0512   -0.2479 C   0  0  0  0  0  0  0  0  0  0  0  0
   -1.8030   -0.0760    0.5674 C   0  0  0  0  0  0  0  0  0  0  0  0
   -0.4421   -0.4631    0.0460 C   0  0  0  0  0  0  0  0  0  0  0  0
   -0.1001   -1.6033   -0.1961 O   0  0  0  0  0  0  0  0  0  0  0  0
    0.3469    0.5896   -0.1164 O   0  0  0  0  0  0  0  0  0  0  0  0
    1.6876    0.3768   -0.5857 C   0  0  0  0  0  0  0  0  0  0  0  0
    2.6359    0.1090    0.5731 C   0  0  0  0  0  0  0  0  0  0  0  0
   -2.5764    0.7405   -1.2800 H   0  0  0  0  0  0  0  0  0  0  0  0
   -3.4016    1.3092    0.1729 H   0  0  0  0  0  0  0  0  0  0  0  0
   -1.7962    1.9298   -0.2331 H   0  0  0  0  0  0  0  0  0  0  0  0
   -2.4297   -0.9678    0.5577 H   0  0  0  0  0  0  0  0  0  0  0  0
   -1.6729    0.2507    1.6009 H   0  0  0  0  0  0  0  0  0  0  0  0
    1.6844   -0.4660   -1.2837 H   0  0  0  0  0  0  0  0  0  0  0  0
    1.9476    1.2993   -1.1058 H   0  0  0  0  0  0  0  0  0  0  0  0
    2.5907    0.9246    1.2896 H   0  0  0  0  0  0  0  0  0  0  0  0
    2.3612   -0.8177    1.0724 H   0  0  0  0  0  0  0  0  0  0  0  0
    3.6490    0.0185    0.1954 H   0  0  0  0  0  0  0  0  0  0  0  0
  1  2  1  0  0  0  0
  2  3  1  0  0  0  0
  3  4  2  0  0  0  0
  3  5  1  0  0  0  0
  5  6  1  0  0  0  0
  6  7  1  0  0  0  0
  1  8  1  0  0  0  0
  1  9  1  0  0  0  0
  1 10  1  0  0  0  0
  2 11  1  0  0  0  0
  2 12  1  0  0  0  0
  6 13  1  0  0  0  0
  6 14  1  0  0  0  0
  7 15  1  0  0  0  0
  7 16  1  0  0  0  0
  7 17  1  0  0  0  0
M  END
