17
 xtb: 6.7.1 (edcfbbe)
C           -2.05023050638402       -0.54158728257949        0.92794018906003
C           -2.06167840949931        0.56258474143709       -0.12457418365116
C           -0.86481437053138        0.53287483742271       -1.05353712737554
O            0.36074698351958        0.81658633795333       -0.30598158693054
C            1.17240170162302       -0.20878848742597        0.02122451067493
O            0.97316937594769       -1.36794477087567       -0.30340891568063
C            2.33397986232751        0.26292794770916        0.83678186864780
H           -1.17281891919027       -0.46462998160821        1.57921717045230
H           -2.93792073623854       -0.47571484957046        1.56428151853256
H           -2.04081138199756       -1.53195218237112        0.46093026351772
H           -2.11679100281814        1.54655767196255        0.35603820211033
H           -2.95275909122360        0.46968040224822       -0.75759961059686
H           -0.76286151426577       -0.43110586936774       -1.55781302000442
H           -0.92320692865910        1.32923313878106       -1.79911162948040
H            3.06487048114162       -0.53819178287496        0.94094659639167
H            1.97306771141547        0.55673278194771        1.82821641996163
H            2.79344678918961        1.14245970781272        0.37924753819924
