 xtb: 6.7.1 (edcfbbe)
          04112511373D

 21 20  0     0  0            999 V2000
   -3.0118    0.2708   -0.1737 C   0  0  0  0  0  0  0  0  0  0  0  0
   -1.5754    0.1536   -0.6722 C   0  0  0  0  0  0  0  0  0  0  0  0
   -0.6038    0.0387    0.4981 C   0  0  0  0  0  0  0  0  0  0  0  0
    0.8868   -0.0818    0.1361 C   0  0  0  0  0  0  0  0  0  0  0  0
    1.3916    1.1580   -0.6097 C   0  0  0  0  0  0  0  0  0  0  0  0
    1.1705   -1.3413   -0.6892 C   0  0  0  0  0  0  0  0  0  0  0  0
    1.5425   -0.1800    1.4025 O   0  0  0  0  0  0  0  0  0  0  0  0
   -3.2840   -0.6033    0.4133 H   0  0  0  0  0  0  0  0  0  0  0  0
   -3.7004    0.3515   -1.0112 H   0  0  0  0  0  0  0  0  0  0  0  0
   -3.1269    1.1519    0.4533 H   0  0  0  0  0  0  0  0  0  0  0  0
   -1.4928   -0.7260   -1.3118 H   0  0  0  0  0  0  0  0  0  0  0  0
   -1.3349    1.0332   -1.2705 H   0  0  0  0  0  0  0  0  0  0  0  0
   -0.7093    0.9128    1.1451 H   0  0  0  0  0  0  0  0  0  0  0  0
   -0.8613   -0.8363    1.0995 H   0  0  0  0  0  0  0  0  0  0  0  0
    0.9001    1.2500   -1.5727 H   0  0  0  0  0  0  0  0  0  0  0  0
    2.4640    1.0826   -0.7781 H   0  0  0  0  0  0  0  0  0  0  0  0
    1.1945    2.0513   -0.0219 H   0  0  0  0  0  0  0  0  0  0  0  0
    0.8116   -2.2210   -0.1606 H   0  0  0  0  0  0  0  0  0  0  0  0
    2.2409   -1.4475   -0.8536 H   0  0  0  0  0  0  0  0  0  0  0  0
    0.6807   -1.2820   -1.6557 H   0  0  0  0  0  0  0  0  0  0  0  0
    2.4952   -0.2589    1.2583 H   0  0  0  0  0  0  0  0  0  0  0  0
  1  2  1  0  0  0  0
  2  3  1  0  0  0  0
  3  4  1  0  0  0  0
  4  5  1  0  0  0  0
  4  6  1  0  0  0  0
  4  7  1  0  0  0  0
  1  8  1  0  0  0  0
  1  9  1  0  0  0  0
  1 10  1  0  0  0  0
  2 11  1  0  0  0  0
  2 12  1  0  0  0  0
  3 13  1  0  0  0  0
  3 14  1  0  0  0  0
  5 15  1  0  0  0  0
  5 16  1  0  0  0  0
  5 17  1  0  0  0  0
  6 18  1  0  0  0  0
  6 19  1  0  0  0  0
  6 20  1  0  0  0  0
  7 21  1  0  0  0  0
M  END
