  17
 
 C          2.5272426210       -0.3345834685        0.0022235421
 C          1.2673706941        0.5225565438       -0.0004027481
 C         -0.0000335506       -0.3287741399        0.0004650979
 C         -1.2673945639        0.5226397769       -0.0004666590
 C         -2.5273364780       -0.3344012937        0.0021701909
 H          3.4169870218        0.2907698712       -0.0005587470
 H          2.5543073890       -0.9745584875       -0.8770885313
 H          2.5551950623       -0.9678616509        0.8862651261
 H          1.2672618412        1.1699541940        0.8796699859
 H          1.2687664851        1.1661365636       -0.8832134502
 H         -0.0000807317       -0.9735051930        0.8826610883
 H         -0.0000286951       -0.9752534995       -0.8805002694
 H         -1.2672383925        1.1700696299        0.8795498683
 H         -1.2687173707        1.1662096274       -0.8833349840
 H         -3.4170238008        0.2910100567       -0.0007587754
 H         -2.5554515667       -0.9675800288        0.8863069182
 H         -2.5543879315       -0.9745217246       -0.8770246195
          17
        -16.82945680
 C          2.5273766683       -0.3341363897       -0.0004970037
 C          1.2672837837        0.5226873770        0.0004540787
 C          0.0000155199       -0.3287129222        0.0006153144
 C         -1.2672943085        0.5226377841       -0.0003996416
 C         -2.5273723722       -0.3341110648       -0.0001054632
 H          2.5558297808       -0.9716365314        0.8806697197
 H          3.4170115447        0.2915416313       -0.0001628349
 H          2.5554569905       -0.9701317146       -0.8827400462
 H          1.2679895077        1.1678803762        0.8821856542
 H          1.2671847808        1.1686670151       -0.8807444966
 H         -0.0002689716       -0.9739891950        0.8825584805
 H          0.0002673535       -0.9749055992       -0.8806433534
 H         -1.2678631769        1.1688019648        0.8805867788
 H         -1.2673329654        1.1676492875       -0.8823058689
 H         -3.4170489935        0.2915351386       -0.0002114665
 H         -2.5557051985       -0.9707914527        0.8817053992
 H         -2.5556313733       -0.9709771322       -0.8816997878
