  17
 
 C         -0.5110000000        0.9040000000       -0.3450000000
 C         -0.5700000000        0.9510000000       -1.8630000000
 C          0.8290000000        0.9520000000       -2.4790000000
 C          0.7650000000        1.0000000000       -4.0050000000
 C          2.1550000000        1.0000000000       -4.6210000000
 H         -1.5170000000        0.9040000000        0.0870000000
 H          0.0340000000        1.7660000000        0.0530000000
 H          0.0010000000       -0.0050000000       -0.0140000000
 H         -1.1370000000        0.0870000000       -2.2280000000
 H         -1.1140000000        1.8510000000       -2.1740000000
 H          1.3710000000        0.0520000000       -2.1610000000
 H          1.3930000000        1.8160000000       -2.1080000000
 H          0.2050000000        0.1360000000       -4.3820000000
 H          0.2280000000        1.8990000000       -4.3270000000
 H          2.1000000000        1.0350000000       -5.7140000000
 H          2.6960000000        0.0930000000       -4.3370000000
 H          2.7350000000        1.8630000000       -4.2790000000
