 14

C      0.136000    -2.614000     1.393000
C     -0.820000    -1.595000     0.834000
O     -2.031000    -1.802000     0.790000
C     -0.235000    -0.343000     0.342000
C      0.924000    -0.397000    -0.617000
C     -0.424000     0.043000    -1.101000
H      0.473000    -3.277000     0.593000
H      0.990000    -2.105000     1.847000
H     -0.368000    -3.211000     2.158000
H     -0.229000     0.467000     1.064000
H      1.700000     0.354000    -0.536000
H      1.277000    -1.374000    -0.926000
H     -0.554000     1.091000    -1.345000
H     -0.980000    -0.636000    -1.736000
