  14
 
 C          0.1360000000       -2.6140000000        1.3930000000
 C         -0.8200000000       -1.5950000000        0.8340000000
 O         -2.0310000000       -1.8020000000        0.7900000000
 C         -0.2350000000       -0.3430000000        0.3420000000
 C          0.9240000000       -0.3970000000       -0.6170000000
 C         -0.4240000000        0.0430000000       -1.1010000000
 H          0.4730000000       -3.2770000000        0.5930000000
 H          0.9900000000       -2.1050000000        1.8470000000
 H         -0.3680000000       -3.2110000000        2.1580000000
 H         -0.2290000000        0.4670000000        1.0640000000
 H          1.7000000000        0.3540000000       -0.5360000000
 H          1.2770000000       -1.3740000000       -0.9260000000
 H         -0.5540000000        1.0910000000       -1.3450000000
 H         -0.9800000000       -0.6360000000       -1.7360000000
