  23
 
 C          0.0510000000        0.6950000000       -1.3300000000
 C          0.7300000000       -0.4750000000       -0.6710000000
 O          1.4870000000       -0.3260000000        0.2870000000
 C          0.4390000000       -1.8330000000       -1.2410000000
 C          1.0890000000       -2.9170000000       -0.3780000000
 C          2.5980000000       -3.0260000000       -0.5900000000
 C          2.9490000000       -3.1870000000       -2.0640000000
 C          2.3700000000       -2.0530000000       -2.9020000000
 C          0.8600000000       -1.9150000000       -2.7090000000
 H          0.6830000000        1.0780000000       -2.1360000000
 H         -0.9170000000        0.3810000000       -1.7270000000
 H         -0.1080000000        1.4900000000       -0.5970000000
 H         -0.6500000000       -1.9510000000       -1.1800000000
 H          0.8870000000       -2.7310000000        0.6840000000
 H          0.6300000000       -3.8840000000       -0.6230000000
 H          3.0980000000       -2.1370000000       -0.1880000000
 H          2.9830000000       -3.8840000000       -0.0270000000
 H          4.0380000000       -3.2150000000       -2.1830000000
 H          2.5630000000       -4.1460000000       -2.4310000000
 H          2.8630000000       -1.1110000000       -2.6300000000
 H          2.5900000000       -2.2280000000       -3.9620000000
 H          0.5070000000       -1.0340000000       -3.2590000000
 H          0.3720000000       -2.7860000000       -3.1650000000
