 14

C      0.730000     0.208000     1.797000
C      0.493000     0.491000     0.319000
C     -0.482000    -0.490000    -0.342000
H     -0.093000    -1.511000    -0.266000
C     -0.697000    -0.146000    -1.811000
Cl    -2.069000    -0.479000     0.486000
H      1.433000     0.939000     2.210000
H      1.157000    -0.787000     1.956000
H     -0.203000     0.279000     2.364000
H      1.455000     0.487000    -0.208000
H      0.091000     1.508000     0.230000
H     -1.394000    -0.848000    -2.282000
H     -1.121000     0.859000    -1.914000
H      0.243000    -0.173000    -2.373000
