  14
 
 C          0.7300000000        0.2080000000        1.7970000000
 C          0.4930000000        0.4910000000        0.3190000000
 C         -0.4820000000       -0.4900000000       -0.3420000000
 H         -0.0930000000       -1.5110000000       -0.2660000000
 C         -0.6970000000       -0.1460000000       -1.8110000000
 Cl        -2.0690000000       -0.4790000000        0.4860000000
 H          1.4330000000        0.9390000000        2.2100000000
 H          1.1570000000       -0.7870000000        1.9560000000
 H         -0.2030000000        0.2790000000        2.3640000000
 H          1.4550000000        0.4870000000       -0.2080000000
 H          0.0910000000        1.5080000000        0.2300000000
 H         -1.3940000000       -0.8480000000       -2.2820000000
 H         -1.1210000000        0.8590000000       -1.9140000000
 H          0.2430000000       -0.1730000000       -2.3730000000
