 xtb: 6.7.1 (edcfbbe)
          04112511363D

 14 13  0     0  0            999 V2000
   -1.0646   -0.1480    0.7367 C   0  0  0  0  0  0  0  0  0  0  0  0
    0.2426    0.5637    0.3507 C   0  0  0  0  0  0  0  0  0  0  0  0
    1.1279   -0.3501   -0.5006 C   0  0  0  0  0  0  0  0  0  0  0  0
    1.5914   -1.4014    0.3151 O   0  0  0  0  0  0  0  0  0  0  0  0
   -0.0278    1.7224   -0.4118 O   0  0  0  0  0  0  0  0  0  0  0  0
   -1.8469   -0.4617   -0.3905 O   0  0  0  0  0  0  0  0  0  0  0  0
   -1.6370    0.4867    1.4284 H   0  0  0  0  0  0  0  0  0  0  0  0
   -0.8266   -1.0898    1.2328 H   0  0  0  0  0  0  0  0  0  0  0  0
    0.7937    0.8086    1.2683 H   0  0  0  0  0  0  0  0  0  0  0  0
    1.9631    0.2462   -0.8906 H   0  0  0  0  0  0  0  0  0  0  0  0
    0.5362   -0.7278   -1.3424 H   0  0  0  0  0  0  0  0  0  0  0  0
    2.0656   -2.0404   -0.2342 H   0  0  0  0  0  0  0  0  0  0  0  0
   -0.4110    2.4015    0.1613 H   0  0  0  0  0  0  0  0  0  0  0  0
   -1.8913    0.3295   -0.9504 H   0  0  0  0  0  0  0  0  0  0  0  0
  1  2  1  0  0  0  0
  2  3  1  0  0  0  0
  3  4  1  0  0  0  0
  2  5  1  0  0  0  0
  1  6  1  0  0  0  0
  1  7  1  0  0  0  0
  1  8  1  0  0  0  0
  2  9  1  0  0  0  0
  3 10  1  0  0  0  0
  3 11  1  0  0  0  0
  4 12  1  0  0  0  0
  5 13  1  0  0  0  0
  6 14  1  0  0  0  0
M  END
