16
 xtb: 6.7.1 (edcfbbe)
C           -2.05099904518278        0.39150148812543        0.60397922522661
C           -1.43903136442384       -0.76698062872900       -0.17629808649387
C           -0.22072767724692       -0.35123105309683       -1.03091004027949
C            0.89352973913697        0.17037848766736       -0.16504656886549
O            1.06418721458890        1.37734384418138       -0.00104487844008
C            1.77844211644348       -0.84248536215240        0.49636053750632
H           -2.33141457958487        1.21238889437344       -0.06577956496482
H           -1.35541861100535        0.79099587566191        1.34996889426019
H           -2.95216199996306        0.06532139929514        1.13287939368901
H           -2.18454946377194       -1.18998526235459       -0.85808354703012
H           -1.14675326870506       -1.57043164511933        0.50959961135927
H            0.13494866934835       -1.22430988051281       -1.58917286747516
H           -0.51771990741729        0.43301053237920       -1.73428512393732
H            2.45693550843031       -1.24481058176706       -0.26736227261856
H            1.19637582017259       -1.68885337758270        0.87386243298056
H            2.36749834441103       -0.39055173395365        1.29601816657627
