 xtb: 6.7.1 (edcfbbe)
          04112511193D

 14 13  0     0  0            999 V2000
   -1.1055   -0.1853   -0.5054 C   0  0  0  0  0  0  0  0  0  0  0  0
    0.1169    0.3784    0.2292 C   0  0  0  0  0  0  0  0  0  0  0  0
    1.4371   -0.1426   -0.3738 C   0  0  0  0  0  0  0  0  0  0  0  0
    1.7636   -1.4413    0.0560 O   0  0  0  0  0  0  0  0  0  0  0  0
    0.0443    1.7859    0.1395 O   0  0  0  0  0  0  0  0  0  0  0  0
   -2.1593   -0.3453    0.4177 O   0  0  0  0  0  0  0  0  0  0  0  0
   -0.8572   -1.1525   -0.9627 H   0  0  0  0  0  0  0  0  0  0  0  0
   -1.3718    0.5271   -1.2944 H   0  0  0  0  0  0  0  0  0  0  0  0
    0.0556    0.0525    1.2776 H   0  0  0  0  0  0  0  0  0  0  0  0
    2.2608    0.4892   -0.0341 H   0  0  0  0  0  0  0  0  0  0  0  0
    1.3879   -0.0864   -1.4690 H   0  0  0  0  0  0  0  0  0  0  0  0
    1.0685   -2.0597   -0.2081 H   0  0  0  0  0  0  0  0  0  0  0  0
    0.6685    2.1887    0.7582 H   0  0  0  0  0  0  0  0  0  0  0  0
   -2.9771   -0.5486   -0.0566 H   0  0  0  0  0  0  0  0  0  0  0  0
  1  2  1  0  0  0  0
  2  3  1  0  0  0  0
  3  4  1  0  0  0  0
  2  5  1  0  0  0  0
  1  6  1  0  0  0  0
  1  7  1  0  0  0  0
  1  8  1  0  0  0  0
  2  9  1  0  0  0  0
  3 10  1  0  0  0  0
  3 11  1  0  0  0  0
  4 12  1  0  0  0  0
  5 13  1  0  0  0  0
  6 14  1  0  0  0  0
M  END
