  28
 
 C          5.0509102069       -0.2351593892        0.0188072413
 C          3.7982270149        0.6319281241       -0.0013514548
 C          2.5277965833       -0.2129696417       -0.0001793413
 C          1.2693662471        0.6495207684       -0.0159157614
 C         -0.0023162941       -0.1762381869       -0.0044138383
 O         -0.0024123557       -1.3801410323       -0.0064487403
 C         -1.2742501078        0.6491459550        0.0127497086
 C         -2.5322158492       -0.2142050953        0.0053556734
 C         -3.8034543117        0.6292372926        0.0151912917
 C         -5.0549618991       -0.2396733634        0.0085036784
 H          5.9455347646        0.3833758019        0.0188301614
 H          5.0794098718       -0.8823217546       -0.8548900274
 H          5.0650510410       -0.8614983921        0.9079097870
 H          3.8109071069        1.2665028442       -0.8909654308
 H          3.7976334691        1.2877790435        0.8728041174
 H          2.5195356101       -0.8689595151       -0.8724109610
 H          2.5094325081       -0.8505957003        0.8855106593
 H          1.2568385246        1.2820888915       -0.9072985185
 H          1.2559371870        1.3150451457        0.8510687772
 H         -1.2652458300        1.3111045886       -0.8569835853
 H         -1.2581316120        1.2854766912        0.9013822367
 H         -2.5171516430       -0.8706874682        0.8771824554
 H         -2.5192210445       -0.8515883106       -0.8806515942
 H         -3.8092391921        1.2663330190        0.9030736327
 H         -3.8113853225        1.2826208567       -0.8607639230
 H         -5.9504493670        0.3774741582        0.0172139635
 H         -5.0773380180       -0.8668280371       -0.8798432675
 H         -5.0734181617       -0.8860771852        0.8830240242
          28
        -32.51957352
 C          3.0778590734        1.8673153429        0.2229077955
 C          1.9125350832        1.0257083153       -0.2808779938
 C          2.2457477721       -0.4643538779       -0.2667117823
 C          1.0730650691       -1.3094229914       -0.7624684376
 C         -0.0603718154       -1.3715181516        0.2416134613
 O          0.1204995542       -1.3229134311        1.4321021030
 C         -1.4397754609       -1.5047285345       -0.3668754895
 C         -1.9703797333       -0.1219007286       -0.7738560255
 C         -2.2784491544        0.7558338946        0.4366917558
 C         -2.7174411697        2.1533572196        0.0180512037
 H          2.8238918820        2.9246283167        0.2034096463
 H          3.9575390915        1.7137161312       -0.3989123919
 H          3.3286197756        1.5930292262        1.2448939362
 H          1.6576188417        1.3318062529       -1.2994051906
 H          1.0396140620        1.2027623883        0.3504198818
 H          3.1200178905       -0.6470888174       -0.8953179320
 H          2.4878002661       -0.7695272183        0.7527920552
 H          1.4024502292       -2.3429783568       -0.9087641136
 H          0.7075822394       -0.9403491961       -1.7218437887
 H         -2.1150960573       -1.9447407947        0.3685978691
 H         -1.3904677917       -2.1504214244       -1.2451387483
 H         -2.8804612510       -0.2542925332       -1.3635166325
 H         -1.2351783371        0.3800270841       -1.4073096241
 H         -3.0679659353        0.2876120803        1.0281975068
 H         -1.3934196780        0.8259354206        1.0712569534
 H         -2.9456906936        2.7588413662        0.8916362527
 H         -1.9296323470        2.6490581744       -0.5457012783
 H         -3.6065784951        2.1040794203       -0.6075063836
