  28
 
 C         -1.6200000000        1.5630000000        4.2480000000
 C         -1.7870000000        1.6210000000        2.7380000000
 C         -0.9430000000        0.5560000000        2.0390000000
 C         -1.1130000000        0.6190000000        0.5230000000
 C         -0.2840000000       -0.4300000000       -0.2020000000
 O          0.4350000000       -1.2270000000        0.3970000000
 C         -0.4340000000       -0.4500000000       -1.7170000000
 C          0.4140000000       -1.5160000000       -2.4080000000
 C          0.2380000000       -1.5060000000       -3.9290000000
 C          1.0910000000       -2.5750000000       -4.5930000000
 H         -2.2330000000        2.3330000000        4.7270000000
 H         -0.5770000000        1.7320000000        4.5340000000
 H         -1.9310000000        0.5890000000        4.6390000000
 H         -1.4990000000        2.6170000000        2.3820000000
 H         -2.8450000000        1.4810000000        2.4870000000
 H          0.1150000000        0.6950000000        2.2980000000
 H         -1.2280000000       -0.4390000000        2.4030000000
 H         -0.8060000000        1.6030000000        0.1550000000
 H         -2.1640000000        0.4580000000        0.2590000000
 H         -0.1810000000        0.5420000000       -2.1080000000
 H         -1.4920000000       -0.6400000000       -1.9290000000
 H          0.1140000000       -2.4990000000       -2.0250000000
 H          1.4720000000       -1.3850000000       -2.1540000000
 H         -0.8150000000       -1.6800000000       -4.1820000000
 H          0.5110000000       -0.5280000000       -4.3390000000
 H          0.9510000000       -2.5520000000       -5.6780000000
 H          2.1540000000       -2.4150000000       -4.3840000000
 H          0.8170000000       -3.5740000000       -4.2370000000
