 xtb: 6.7.1 (edcfbbe)
          04112513073D

 21 21  0     0  0            999 V2000
   -3.6229    1.0320   -0.2051 C   0  0  0  0  0  0  0  0  0  0  0  0
   -2.2828    1.4770   -0.0820 O   0  0  0  0  0  0  0  0  0  0  0  0
   -1.2286    0.6351   -0.0101 C   0  0  0  0  0  0  0  0  0  0  0  0
   -1.1741   -0.7564   -0.0397 C   0  0  0  0  0  0  0  0  0  0  0  0
    0.0361   -1.4316    0.0670 C   0  0  0  0  0  0  0  0  0  0  0  0
    1.2238   -0.7411    0.1874 C   0  0  0  0  0  0  0  0  0  0  0  0
    1.2266    0.6523    0.1867 C   0  0  0  0  0  0  0  0  0  0  0  0
    0.0025    1.3206    0.1056 C   0  0  0  0  0  0  0  0  0  0  0  0
   -0.0359    2.6673    0.1433 O   0  0  0  0  0  0  0  0  0  0  0  0
    2.3410    1.4502    0.3164 O   0  0  0  0  0  0  0  0  0  0  0  0
    3.3165    1.3597   -0.7228 C   0  0  0  0  0  0  0  0  0  0  0  0
    2.6880   -1.6465    0.3862 Cl  0  0  0  0  0  0  0  0  0  0  0  0
   -2.5731   -1.7807   -0.1894 Cl  0  0  0  0  0  0  0  0  0  0  0  0
   -4.2069    1.9499   -0.2314 H   0  0  0  0  0  0  0  0  0  0  0  0
   -3.9263    0.4299    0.6525 H   0  0  0  0  0  0  0  0  0  0  0  0
   -3.7772    0.4734   -1.1294 H   0  0  0  0  0  0  0  0  0  0  0  0
    0.0404   -2.5089    0.0623 H   0  0  0  0  0  0  0  0  0  0  0  0
    0.8715    3.0012    0.2772 H   0  0  0  0  0  0  0  0  0  0  0  0
    2.8604    1.5624   -1.6943 H   0  0  0  0  0  0  0  0  0  0  0  0
    3.7964    0.3815   -0.7427 H   0  0  0  0  0  0  0  0  0  0  0  0
    4.0522    2.1238   -0.4859 H   0  0  0  0  0  0  0  0  0  0  0  0
  1  2  1  0  0  0  0
  2  3  1  0  0  0  0
  3  4  4  0  0  0  0
  4  5  4  0  0  0  0
  5  6  4  0  0  0  0
  6  7  4  0  0  0  0
  3  8  4  0  0  0  0
  7  8  4  0  0  0  0
  8  9  1  0  0  0  0
  7 10  1  0  0  0  0
 10 11  1  0  0  0  0
  6 12  1  0  0  0  0
  4 13  1  0  0  0  0
  1 14  1  0  0  0  0
  1 15  1  0  0  0  0
  1 16  1  0  0  0  0
  5 17  1  0  0  0  0
  9 18  1  0  0  0  0
 11 19  1  0  0  0  0
 11 20  1  0  0  0  0
 11 21  1  0  0  0  0
M  END
