22
 xtb: 6.7.1 (edcfbbe)
C            4.97631334036381        1.21553342594561       -0.04275492063839
C            4.54905317123518       -0.24637716804595       -0.09003513014591
C            3.07098518719858       -0.56972192383454       -0.05994238223686
O            2.68692238426350       -1.74568564262082       -0.04908313080943
N            2.21842437278501        0.49469085144388       -0.05331447564912
C            0.81664086785154        0.51396406821154       -0.04668235432820
C            0.20092546114913        1.77088593795050       -0.12295111012412
C           -1.17763954296872        1.88071916499701       -0.12021314291349
C           -1.97167520670725        0.73993910489760       -0.04086680248601
C           -1.35923273725610       -0.50886161375097        0.03790020594510
C            0.02571072557175       -0.63493240452317        0.03718510587052
Cl          -2.31682491959202       -1.96824219221921        0.14157458860029
Cl          -3.71053627009106        0.90666009022157       -0.04174877817547
H            4.61608860044600        1.77694592687425       -0.91172855343838
H            6.06806356622024        1.27534154869546       -0.04906637547966
H            4.62721767451102        1.71298466686954        0.86840423532585
H            4.98530641384999       -0.80093831175419        0.74900024488868
H            4.93375490184629       -0.72835066935834       -0.99722959080751
H            2.64713830888473        1.41000067947009       -0.07781675767066
H            0.80872820335643        2.66794645432424       -0.18553707449117
H           -1.64375863795350        2.85741602876272       -0.18165722080928
H            0.47431856902192       -1.61406432057694        0.10285491089560
