 xtb: 6.7.1 (edcfbbe)
          04112512403D

 18 17  0     0  0            999 V2000
   -2.3588    0.7229   -0.0117 C   0  0  0  0  0  0  0  0  0  0  0  0
   -0.8446    0.8956   -0.0042 C   0  0  0  0  0  0  0  0  0  0  0  0
   -0.0918   -0.3335    0.5170 C   0  0  0  0  0  0  0  0  0  0  0  0
   -0.4328   -0.5495    1.5353 H   0  0  0  0  0  0  0  0  0  0  0  0
   -0.3333   -1.5680   -0.3522 C   0  0  0  0  0  0  0  0  0  0  0  0
    1.4108   -0.0210    0.6177 C   0  0  0  0  0  0  0  0  0  0  0  0
    2.0093    0.3358   -0.6090 O   0  0  0  0  0  0  0  0  0  0  0  0
   -2.8384    1.6586   -0.2885 H   0  0  0  0  0  0  0  0  0  0  0  0
   -2.6643   -0.0372   -0.7252 H   0  0  0  0  0  0  0  0  0  0  0  0
   -2.7131    0.4349    0.9757 H   0  0  0  0  0  0  0  0  0  0  0  0
   -0.5880    1.7478    0.6297 H   0  0  0  0  0  0  0  0  0  0  0  0
   -0.4938    1.1244   -1.0127 H   0  0  0  0  0  0  0  0  0  0  0  0
    0.3224   -2.3806   -0.0460 H   0  0  0  0  0  0  0  0  0  0  0  0
   -0.1538   -1.3424   -1.4010 H   0  0  0  0  0  0  0  0  0  0  0  0
   -1.3593   -1.9088   -0.2508 H   0  0  0  0  0  0  0  0  0  0  0  0
    1.9360   -0.8811    1.0567 H   0  0  0  0  0  0  0  0  0  0  0  0
    1.5649    0.8415    1.2714 H   0  0  0  0  0  0  0  0  0  0  0  0
    1.9552   -0.4202   -1.2094 H   0  0  0  0  0  0  0  0  0  0  0  0
  1  2  1  0  0  0  0
  2  3  1  0  0  0  0
  3  4  1  0  0  0  0
  3  5  1  0  0  0  0
  3  6  1  0  0  0  0
  6  7  1  0  0  0  0
  1  8  1  0  0  0  0
  1  9  1  0  0  0  0
  1 10  1  0  0  0  0
  2 11  1  0  0  0  0
  2 12  1  0  0  0  0
  5 13  1  0  0  0  0
  5 14  1  0  0  0  0
  5 15  1  0  0  0  0
  6 16  1  0  0  0  0
  6 17  1  0  0  0  0
  7 18  1  0  0  0  0
M  END
