24
 xtb: 6.7.1 (edcfbbe)
C           -2.91153030612989        0.55811235125476       -0.63092741567760
C           -1.85769935943036       -0.53126681551180       -0.44350308774231
C           -1.18867038117355       -0.49415114039965        0.94926480375354
C            0.31359954138771       -0.18915669539749        0.92923120898286
C            1.16131698668377       -1.21135190285141        0.10960046398028
C            1.97812332481481       -0.37921132202828       -0.89832634399045
C            2.07677478284847        1.00216468857225       -0.24081356198598
C            0.67179666955891        1.19048455775433        0.33628117805644
H           -2.47580619319304        1.55434313005500       -0.49400728939800
H           -3.35649617271813        0.51981383016162       -1.63130341746617
H           -3.72112873262229        0.44925420631514        0.09960313778824
H           -2.32345372567148       -1.50908997964931       -0.60979902744314
H           -1.09427260171735       -0.42761983764445       -1.22463143202248
H           -1.68869066572538        0.26267326731235        1.56905120085631
H           -1.33979850617419       -1.45116276931239        1.46332407688887
H            0.66531535222638       -0.20772980357985        1.96824668288869
H            1.83112539336253       -1.76141357975632        0.77880034398797
H            0.53043937085950       -1.95288805558021       -0.39143606685729
H            2.95288296430765       -0.82143042148047       -1.12725740851501
H            1.42670585785773       -0.28599394117968       -1.84217685219711
H            2.81634117806683        0.97909923106931        0.57030203180639
H            2.36904624664176        1.79247891594071       -0.94000619556068
H            0.60738897003140        1.98935550261494        1.08250665308164
H           -0.01820297779505        1.44278142369082       -0.47895776374911
