13
 xtb: 6.7.1 (edcfbbe)
C           -1.64638973758223        0.83937719312412       -0.05693400405132
O           -1.17771536145119       -0.44741813491043        0.38078154262464
C           -0.01350300910358       -0.91847720007316       -0.27052247171445
O            1.20090566463135       -0.43741300111718        0.27334967287376
C            1.63560508743726        0.83819593095034       -0.22815591801271
H           -1.55678848142582        0.93658341633427       -1.14624237690248
H           -1.09849354298197        1.65333213994424        0.43001797406313
H           -2.70040976845786        0.90585530790012        0.22345685219018
H           -0.00268374377938       -1.99905594061728       -0.10467817294879
H           -0.06274451099450       -0.68396846538351       -1.34571901891347
H            2.70813196687111        0.90746806545699       -0.03129673460739
H            1.12802167555042        1.66505255814957        0.27997884251418
H            1.46246092039306        0.91085940146161       -1.30907278444074
