 xtb: 6.7.1 (edcfbbe)
          04112511523D

 13 12  0     0  0            999 V2000
   -2.4145   -0.0553    0.1587 C   0  0  0  0  0  0  0  0  0  0  0  0
   -1.1742    0.1522   -0.4857 O   0  0  0  0  0  0  0  0  0  0  0  0
   -0.0687   -0.1055    0.3526 C   0  0  0  0  0  0  0  0  0  0  0  0
    1.2082    0.1468   -0.4432 C   0  0  0  0  0  0  0  0  0  0  0  0
    2.3098   -0.1287    0.3926 O   0  0  0  0  0  0  0  0  0  0  0  0
   -2.5124   -1.0940    0.4915 H   0  0  0  0  0  0  0  0  0  0  0  0
   -3.1794    0.1708   -0.5795 H   0  0  0  0  0  0  0  0  0  0  0  0
   -2.5214    0.6090    1.0227 H   0  0  0  0  0  0  0  0  0  0  0  0
   -0.0886    0.5514    1.2341 H   0  0  0  0  0  0  0  0  0  0  0  0
   -0.0817   -1.1479    0.7026 H   0  0  0  0  0  0  0  0  0  0  0  0
    1.2149    1.1914   -0.7776 H   0  0  0  0  0  0  0  0  0  0  0  0
    1.2061   -0.5054   -1.3251 H   0  0  0  0  0  0  0  0  0  0  0  0
    3.1285    0.0187   -0.1016 H   0  0  0  0  0  0  0  0  0  0  0  0
  1  2  1  0  0  0  0
  2  3  1  0  0  0  0
  3  4  1  0  0  0  0
  4  5  1  0  0  0  0
  1  6  1  0  0  0  0
  1  7  1  0  0  0  0
  1  8  1  0  0  0  0
  3  9  1  0  0  0  0
  3 10  1  0  0  0  0
  4 11  1  0  0  0  0
  4 12  1  0  0  0  0
  5 13  1  0  0  0  0
M  END
