 xtb: 6.7.1 (edcfbbe)
          04112512043D

 14 13  0     0  0            999 V2000
    2.3974   -0.0296   -0.1858 C   0  0  0  0  0  0  0  0  0  0  0  0
    1.1632    0.1920    0.4627 O   0  0  0  0  0  0  0  0  0  0  0  0
    0.0494   -0.1453   -0.3393 C   0  0  0  0  0  0  0  0  0  0  0  0
   -1.2240    0.1720    0.4411 C   0  0  0  0  0  0  0  0  0  0  0  0
   -2.3943   -0.1328   -0.3680 N   0  0  0  0  0  0  0  0  0  0  0  0
    3.1689    0.2632    0.5216 H   0  0  0  0  0  0  0  0  0  0  0  0
    2.4753    0.5766   -1.0947 H   0  0  0  0  0  0  0  0  0  0  0  0
    2.5162   -1.0863   -0.4499 H   0  0  0  0  0  0  0  0  0  0  0  0
    0.0626    0.4292   -1.2756 H   0  0  0  0  0  0  0  0  0  0  0  0
    0.0814   -1.2164   -0.5935 H   0  0  0  0  0  0  0  0  0  0  0  0
   -1.1835   -0.3772    1.3960 H   0  0  0  0  0  0  0  0  0  0  0  0
   -1.2317    1.2399    0.6713 H   0  0  0  0  0  0  0  0  0  0  0  0
   -3.2327    0.1066    0.1484 H   0  0  0  0  0  0  0  0  0  0  0  0
   -2.4275   -1.1289   -0.5585 H   0  0  0  0  0  0  0  0  0  0  0  0
  1  2  1  0  0  0  0
  2  3  1  0  0  0  0
  3  4  1  0  0  0  0
  4  5  1  0  0  0  0
  1  6  1  0  0  0  0
  1  7  1  0  0  0  0
  1  8  1  0  0  0  0
  3  9  1  0  0  0  0
  3 10  1  0  0  0  0
  4 11  1  0  0  0  0
  4 12  1  0  0  0  0
  5 13  1  0  0  0  0
  5 14  1  0  0  0  0
M  END
