 xtb: 6.7.1 (edcfbbe)
          04112511493D

 21 20  0     0  0            999 V2000
    2.5531   -0.3801   -0.5565 C   0  0  0  0  0  0  0  0  0  0  0  0
    1.2793   -0.0665    0.2322 C   0  0  0  0  0  0  0  0  0  0  0  0
    1.2459   -0.6943    1.1305 H   0  0  0  0  0  0  0  0  0  0  0  0
    0.0339   -0.3398   -0.6254 C   0  0  0  0  0  0  0  0  0  0  0  0
   -1.2698   -0.4838    0.1697 C   0  0  0  0  0  0  0  0  0  0  0  0
   -1.7264    0.8488    0.7585 C   0  0  0  0  0  0  0  0  0  0  0  0
   -2.3645   -1.0632   -0.7263 C   0  0  0  0  0  0  0  0  0  0  0  0
    1.3198    1.2571    0.7373 O   0  0  0  0  0  0  0  0  0  0  0  0
    2.6052   -1.4409   -0.7813 H   0  0  0  0  0  0  0  0  0  0  0  0
    2.5657    0.1776   -1.4907 H   0  0  0  0  0  0  0  0  0  0  0  0
    3.4259   -0.1033    0.0301 H   0  0  0  0  0  0  0  0  0  0  0  0
   -0.0775    0.4623   -1.3591 H   0  0  0  0  0  0  0  0  0  0  0  0
    0.2090   -1.2691   -1.1704 H   0  0  0  0  0  0  0  0  0  0  0  0
   -1.0899   -1.1837    0.9940 H   0  0  0  0  0  0  0  0  0  0  0  0
   -2.6174    0.7084    1.3662 H   0  0  0  0  0  0  0  0  0  0  0  0
   -1.9624    1.5520   -0.0378 H   0  0  0  0  0  0  0  0  0  0  0  0
   -0.9463    1.2776    1.3813 H   0  0  0  0  0  0  0  0  0  0  0  0
   -2.0766   -2.0409   -1.1057 H   0  0  0  0  0  0  0  0  0  0  0  0
   -3.2918   -1.1707   -0.1690 H   0  0  0  0  0  0  0  0  0  0  0  0
   -2.5479   -0.4051   -1.5729 H   0  0  0  0  0  0  0  0  0  0  0  0
    1.4165    1.8666   -0.0080 H   0  0  0  0  0  0  0  0  0  0  0  0
  1  2  1  0  0  0  0
  2  3  1  0  0  0  0
  2  4  1  0  0  0  0
  4  5  1  0  0  0  0
  5  6  1  0  0  0  0
  5  7  1  0  0  0  0
  2  8  1  0  0  0  0
  1  9  1  0  0  0  0
  1 10  1  0  0  0  0
  1 11  1  0  0  0  0
  4 12  1  0  0  0  0
  4 13  1  0  0  0  0
  5 14  1  0  0  0  0
  6 15  1  0  0  0  0
  6 16  1  0  0  0  0
  6 17  1  0  0  0  0
  7 18  1  0  0  0  0
  7 19  1  0  0  0  0
  7 20  1  0  0  0  0
  8 21  1  0  0  0  0
M  END
