18
 xtb: 6.7.1 (edcfbbe)
C           -2.54680953269129        0.07845139238584        0.26564045655258
C           -1.26229620138635        0.66121473081290       -0.31652959933604
C            0.00472848495437        0.02702210503995        0.23727357973822
C            1.26411609675146        0.71761300812282       -0.27978762897792
C            2.55803343718540        0.11270497496133        0.25785871288230
O           -0.01759396476753       -1.37232125770159       -0.14245658841915
H           -3.42385277055936        0.61009103556855       -0.11677757030274
H           -2.66190709631660       -0.97876729627929        0.00950662394771
H           -2.55375571871614        0.16369357802846        1.35820396928303
H           -1.25649020789676        0.55309840328781       -1.40937513384053
H           -1.21478928212848        1.73563608217715       -0.10472567971379
H           -0.01231440433744        0.08978341078854        1.33775960357993
H            1.25728675146791        0.68503361658277       -1.37728011656266
H            1.20629808821255        1.77413714612374        0.01011810105967
H            2.57320246459760        0.12670403788768        1.35376856534080
H            2.68987465191674       -0.92443734028258       -0.07013626505598
H            3.42739863621530        0.67568358688963       -0.09568360764273
H            0.69728176355678       -1.81537574097067        0.33152022052776
