14
 xtb: 6.7.1 (edcfbbe)
C           -1.22892019417738        0.20004864437233       -0.26518373114569
C            0.12037980342707        0.66280541857437        0.28497593483038
C            1.29154506219246       -0.16375624630663       -0.23374946408184
O            1.10918616200793       -1.53433791087057        0.17258485974512
O            0.34002959509022        2.03789908177583       -0.06268081354117
O           -1.64322617467294       -1.06514656833347        0.26953178682499
H           -1.17616714356551        0.16172611598884       -1.36584147276191
H           -1.99476709688025        0.92923783223062        0.01671389932087
H            0.09441370535459        0.62535415907017        1.38067824200605
H            2.22988767105601        0.23653787925908        0.17290086417706
H            1.32114985682856       -0.08997797432794       -1.33068696311593
H            1.71205660439310       -2.07872041330039       -0.34927555155869
H            0.34328921032824        2.09987724338649       -1.02889575739858
H           -0.88691441749950       -1.66325132889992        0.15465468917462
