 xtb: 6.7.1 (edcfbbe)
          04112511253D

 14 13  0     0  0            999 V2000
   -3.1173    0.4483   -0.1545 C   0  0  0  0  0  0  0  0  0  0  0  0
   -1.9221   -0.2552    0.4775 C   0  0  0  0  0  0  0  0  0  0  0  0
   -0.6077    0.2044   -0.1558 C   0  0  0  0  0  0  0  0  0  0  0  0
    0.5745   -0.5029    0.4812 C   0  0  0  0  0  0  0  0  0  0  0  0
    2.1198    0.0383   -0.2644 Cl  0  0  0  0  0  0  0  0  0  0  0  0
   -3.0393    1.5248   -0.0230 H   0  0  0  0  0  0  0  0  0  0  0  0
   -3.1650    0.2362   -1.2198 H   0  0  0  0  0  0  0  0  0  0  0  0
   -4.0426    0.1116    0.3053 H   0  0  0  0  0  0  0  0  0  0  0  0
   -2.0261   -1.3342    0.3510 H   0  0  0  0  0  0  0  0  0  0  0  0
   -1.9001   -0.0449    1.5481 H   0  0  0  0  0  0  0  0  0  0  0  0
   -0.6239   -0.0068   -1.2264 H   0  0  0  0  0  0  0  0  0  0  0  0
   -0.4977    1.2828   -0.0285 H   0  0  0  0  0  0  0  0  0  0  0  0
    0.5266   -1.5802    0.3315 H   0  0  0  0  0  0  0  0  0  0  0  0
    0.6543   -0.2760    1.5429 H   0  0  0  0  0  0  0  0  0  0  0  0
  1  2  1  0  0  0  0
  2  3  1  0  0  0  0
  3  4  1  0  0  0  0
  4  5  1  0  0  0  0
  1  6  1  0  0  0  0
  1  7  1  0  0  0  0
  1  8  1  0  0  0  0
  2  9  1  0  0  0  0
  2 10  1  0  0  0  0
  3 11  1  0  0  0  0
  3 12  1  0  0  0  0
  4 13  1  0  0  0  0
  4 14  1  0  0  0  0
M  END
