 xtb: 6.7.1 (edcfbbe)
          04112512263D

 16 15  0     0  0            999 V2000
   -1.7724    0.7813   -0.3958 C   0  0  0  0  0  0  0  0  0  0  0  0
   -1.1584   -0.2659    0.5371 C   0  0  0  0  0  0  0  0  0  0  0  0
   -0.0250   -1.0016   -0.0022 N   0  0  0  0  0  0  0  0  0  0  0  0
    1.2986   -0.4813    0.2789 C   0  0  0  0  0  0  0  0  0  0  0  0
    1.6630    0.8686   -0.3511 C   0  0  0  0  0  0  0  0  0  0  0  0
   -2.1023    0.3095   -1.3195 H   0  0  0  0  0  0  0  0  0  0  0  0
   -2.6346    1.2393    0.0822 H   0  0  0  0  0  0  0  0  0  0  0  0
   -1.0597    1.5631   -0.6436 H   0  0  0  0  0  0  0  0  0  0  0  0
   -1.9325   -1.0045    0.7793 H   0  0  0  0  0  0  0  0  0  0  0  0
   -0.8444    0.2031    1.4726 H   0  0  0  0  0  0  0  0  0  0  0  0
   -0.1453   -1.1307   -1.0012 H   0  0  0  0  0  0  0  0  0  0  0  0
    1.3968   -0.4112    1.3662 H   0  0  0  0  0  0  0  0  0  0  0  0
    2.0074   -1.2373   -0.0719 H   0  0  0  0  0  0  0  0  0  0  0  0
    2.7156    1.0787   -0.1798 H   0  0  0  0  0  0  0  0  0  0  0  0
    1.4847    0.8480   -1.4246 H   0  0  0  0  0  0  0  0  0  0  0  0
    1.0797    1.6741    0.0879 H   0  0  0  0  0  0  0  0  0  0  0  0
  1  2  1  0  0  0  0
  2  3  1  0  0  0  0
  3  4  1  0  0  0  0
  4  5  1  0  0  0  0
  1  6  1  0  0  0  0
  1  7  1  0  0  0  0
  1  8  1  0  0  0  0
  2  9  1  0  0  0  0
  2 10  1  0  0  0  0
  3 11  1  0  0  0  0
  4 12  1  0  0  0  0
  4 13  1  0  0  0  0
  5 14  1  0  0  0  0
  5 15  1  0  0  0  0
  5 16  1  0  0  0  0
M  END
