 xtb: 6.7.1 (edcfbbe)
          04112512243D

 23 22  0     0  0            999 V2000
    2.6395    0.5617    0.5562 C   0  0  0  0  0  0  0  0  0  0  0  0
    1.3184   -0.1506    0.8264 C   0  0  0  0  0  0  0  0  0  0  0  0
    0.2891    0.0399   -0.2996 C   0  0  0  0  0  0  0  0  0  0  0  0
    0.3510    1.0749   -0.6552 H   0  0  0  0  0  0  0  0  0  0  0  0
    0.6382   -0.8887   -1.4637 C   0  0  0  0  0  0  0  0  0  0  0  0
   -1.1446   -0.1946    0.2238 C   0  0  0  0  0  0  0  0  0  0  0  0
   -1.6036    0.9719    1.1010 C   0  0  0  0  0  0  0  0  0  0  0  0
   -2.1618   -0.3730   -0.9046 C   0  0  0  0  0  0  0  0  0  0  0  0
    3.3290    0.4010    1.3818 H   0  0  0  0  0  0  0  0  0  0  0  0
    3.1096    0.1945   -0.3525 H   0  0  0  0  0  0  0  0  0  0  0  0
    2.4774    1.6320    0.4487 H   0  0  0  0  0  0  0  0  0  0  0  0
    0.9160    0.2289    1.7663 H   0  0  0  0  0  0  0  0  0  0  0  0
    1.5007   -1.2195    0.9595 H   0  0  0  0  0  0  0  0  0  0  0  0
    0.4512   -1.9253   -1.1902 H   0  0  0  0  0  0  0  0  0  0  0  0
    0.0582   -0.6497   -2.3499 H   0  0  0  0  0  0  0  0  0  0  0  0
    1.6899   -0.7895   -1.7196 H   0  0  0  0  0  0  0  0  0  0  0  0
   -1.1393   -1.1090    0.8288 H   0  0  0  0  0  0  0  0  0  0  0  0
   -0.9243    1.1491    1.9300 H   0  0  0  0  0  0  0  0  0  0  0  0
   -2.5890    0.7671    1.5133 H   0  0  0  0  0  0  0  0  0  0  0  0
   -1.6634    1.8826    0.5084 H   0  0  0  0  0  0  0  0  0  0  0  0
   -3.1659   -0.4235   -0.4890 H   0  0  0  0  0  0  0  0  0  0  0  0
   -1.9849   -1.2872   -1.4626 H   0  0  0  0  0  0  0  0  0  0  0  0
   -2.1198    0.4711   -1.5898 H   0  0  0  0  0  0  0  0  0  0  0  0
  1  2  1  0  0  0  0
  2  3  1  0  0  0  0
  3  4  1  0  0  0  0
  3  5  1  0  0  0  0
  3  6  1  0  0  0  0
  6  7  1  0  0  0  0
  6  8  1  0  0  0  0
  1  9  1  0  0  0  0
  1 10  1  0  0  0  0
  1 11  1  0  0  0  0
  2 12  1  0  0  0  0
  2 13  1  0  0  0  0
  5 14  1  0  0  0  0
  5 15  1  0  0  0  0
  5 16  1  0  0  0  0
  6 17  1  0  0  0  0
  7 18  1  0  0  0  0
  7 19  1  0  0  0  0
  7 20  1  0  0  0  0
  8 21  1  0  0  0  0
  8 22  1  0  0  0  0
  8 23  1  0  0  0  0
M  END
