20
 xtb: 6.7.1 (edcfbbe)
C            1.93609947922808        0.47267469095687        0.80123002753695
C            1.51606839346267       -0.41033161926285       -0.37360735327469
C            0.25545844167874        0.03015884549016       -1.12874898064063
C           -1.09385531748028        0.00532145600982       -0.38070327758513
C           -1.31476278734579        1.19873968931313        0.55460899611239
C           -1.31883461418178       -1.31251979387572        0.36126717057513
H            1.26590063069247        0.36461832690611        1.65804453858742
H            2.94331966768501        0.20850920874812        1.14113421079390
H            1.94729792517668        1.53098847395176        0.51580259054304
H            2.33639881735751       -0.43155663039628       -1.10232259550429
H            1.39767640086539       -1.44501445655946       -0.02805817413606
H            0.41522928372797        1.04288711204844       -1.52473588719044
H            0.15602537362166       -0.62824355930367       -2.00215729692914
H           -1.86397447170720        0.07734194075746       -1.16195169371054
H           -2.35799094744948        1.23125884349354        0.88931455954925
H           -1.09661894918601        2.14584983957867        0.04873370565906
H           -0.68771615187445        1.14204422344556        1.44872591373833
H           -1.17156393233874       -2.17490538961753       -0.29869798332485
H           -0.62846049320480       -1.41340431868081        1.20653924541151
H           -2.33772804947903       -1.36406291025687        0.76039481128262
