22
 xtb: 6.7.1 (edcfbbe)
C           -3.33362414451646        0.84135690578555        0.14877710087241
C           -2.11517598345242        1.51252084217056        0.17303915074356
C           -0.91883503679141        0.80695971502462        0.04512999710694
C           -0.93297257828788       -0.57845323044589       -0.10994684523250
C           -2.15981409682150       -1.24875960982122       -0.13370409863666
C           -3.35189880984364       -0.54463282261416       -0.00454574225743
C            0.33265383537043       -1.39661292048352       -0.25299476886031
N            1.54976619045906       -0.60966587217556       -0.12648288591603
C            2.15845454854783        0.11683298839803       -1.12690097094651
C            3.12417665332956        0.86475323524691       -0.50648071330293
N            3.11146710082016        0.63547738531390        0.85638462159461
C            2.14006902118445       -0.24347565148395        1.04362377476596
H           -4.26340719717967        1.39202813042275        0.25013443239786
H           -2.08991799245656        2.59128680529684        0.29249268098083
H            0.02374050165558        1.34588995790809        0.06701804527864
H           -2.17726856586711       -2.32928299193087       -0.25053359407931
H           -4.29706437034956       -1.07853475589047       -0.02142520178992
H            0.35621860557722       -2.18031476775373        0.51130191830718
H            0.34971282777998       -1.89577428398200       -1.22739638832182
H            1.85719940694393        0.02455707427441       -2.15987081761155
H            3.82839723609532        1.54680415921394       -0.96156872241281
H            1.82986963839533       -0.65933870837210        1.99347394548870
