 15

C      0.503000    -0.303000     1.138000
C      1.852000    -0.868000     0.734000
S      2.926000     0.445000     0.092000
C      4.383000    -0.561000    -0.273000
C      5.498000     0.296000    -0.848000
H     -0.159000    -1.084000     1.529000
H      0.606000     0.479000     1.898000
H      0.011000     0.143000     0.268000
H      1.727000    -1.631000    -0.040000
H      2.341000    -1.334000     1.595000
H      4.722000    -1.049000     0.648000
H      4.107000    -1.345000    -0.987000
H      6.387000    -0.303000    -1.073000
H      5.181000     0.806000    -1.763000
H      5.792000     1.065000    -0.125000
