 xtb: 6.7.1 (edcfbbe)
          04112512423D

 17 16  0     0  0            999 V2000
   -2.3228    0.2093    1.1000 C   0  0  0  0  0  0  0  0  0  0  0  0
   -1.8220    0.5983   -0.2936 C   0  0  0  0  0  0  0  0  0  0  0  0
   -0.5260   -0.1112   -0.5884 C   0  0  0  0  0  0  0  0  0  0  0  0
   -0.4042   -1.0504   -1.3494 O   0  0  0  0  0  0  0  0  0  0  0  0
    0.4821    0.3957    0.1046 O   0  0  0  0  0  0  0  0  0  0  0  0
    1.7749   -0.2144   -0.0451 C   0  0  0  0  0  0  0  0  0  0  0  0
    2.7067    0.3865    0.9893 C   0  0  0  0  0  0  0  0  0  0  0  0
   -3.2626    0.7129    1.3045 H   0  0  0  0  0  0  0  0  0  0  0  0
   -2.4822   -0.8647    1.1590 H   0  0  0  0  0  0  0  0  0  0  0  0
   -1.5957    0.4983    1.8539 H   0  0  0  0  0  0  0  0  0  0  0  0
   -1.6457    1.6729   -0.3318 H   0  0  0  0  0  0  0  0  0  0  0  0
   -2.5485    0.3126   -1.0533 H   0  0  0  0  0  0  0  0  0  0  0  0
    1.6647   -1.2965    0.0820 H   0  0  0  0  0  0  0  0  0  0  0  0
    2.1267   -0.0257   -1.0647 H   0  0  0  0  0  0  0  0  0  0  0  0
    3.6937   -0.0504    0.8796 H   0  0  0  0  0  0  0  0  0  0  0  0
    2.7718    1.4614    0.8498 H   0  0  0  0  0  0  0  0  0  0  0  0
    2.3351    0.1847    1.9896 H   0  0  0  0  0  0  0  0  0  0  0  0
  1  2  1  0  0  0  0
  2  3  1  0  0  0  0
  3  4  2  0  0  0  0
  3  5  1  0  0  0  0
  5  6  1  0  0  0  0
  6  7  1  0  0  0  0
  1  8  1  0  0  0  0
  1  9  1  0  0  0  0
  1 10  1  0  0  0  0
  2 11  1  0  0  0  0
  2 12  1  0  0  0  0
  6 13  1  0  0  0  0
  6 14  1  0  0  0  0
  7 15  1  0  0  0  0
  7 16  1  0  0  0  0
  7 17  1  0  0  0  0
M  END
