  29
 
 C          4.6223230828        0.9667416747       -0.2227249048
 C          3.3548727346        0.2126899801        0.0585671374
 C          2.2389899968        0.8434084757        0.4039018171
 C          0.9063098618        0.2290513493        0.7030021568
 C         -0.0065796739        0.2752276625       -0.5374856682
 C         -1.3516773675       -0.3195325206       -0.2387609668
 C         -2.4269334109        0.4421106505       -0.0789948622
 C         -3.7947529837       -0.0661675993        0.2594688419
 O         -4.6811233039        1.0302571945        0.3222679142
 C         -1.4087973572       -1.8122770680       -0.0820700887
 C          3.4943611163       -1.2754733384       -0.0747821079
 H          5.4289491087        0.5966955805        0.4094624277
 H          4.9244885682        0.8238685088       -1.2602703627
 H          4.4979170409        2.0312246294       -0.0422959144
 H          2.2526967373        1.9251150563        0.4501390087
 H          1.0153492228       -0.8025246341        1.0370950317
 H          0.4232149181        0.7899827694        1.5060988346
 H         -0.1188342325        1.3129455475       -0.8549100026
 H          0.4744866032       -0.2780669517       -1.3480369133
 H         -2.3757982186        1.5145049588       -0.1878469707
 H         -3.7700475065       -0.5973381637        1.2263360519
 H         -4.1292756514       -0.7894353167       -0.5041001312
 H         -5.5629555389        0.7134208129        0.5400483871
 H         -1.5907750015       -2.0819775375        0.9586844310
 H         -0.4780710623       -2.2742748300       -0.4007571317
 H         -2.2226586306       -2.2288733742       -0.6743316907
 H          4.1098474792       -1.6666672982        0.7364760263
 H          2.5354356317       -1.7828241355       -0.0558118798
 H          3.9937214222       -1.5170598451       -1.0126196159
          29
        -34.61323032
 C          2.6775664342        1.3431176272        0.3963447108
 C          1.8685692549        0.2143133594       -0.1763083005
 C          1.6681841476       -0.9030715575        0.5125771223
 C          0.8681611115       -2.0997215291        0.1013451981
 C         -0.5475829960       -2.0530516589        0.7142960958
 C         -1.3262500129       -0.9000381952        0.1451789743
 C         -1.3312486946        0.2738517974        0.7658105036
 C         -1.9771744327        1.5470264717        0.3102092710
 O         -1.0201071095        2.5670052170        0.0838601215
 C         -2.0411144722       -1.1791620344       -1.1433493080
 C          1.3413583756        0.4970235945       -1.5495287315
 H          2.1298025680        2.2804558896        0.3051976431
 H          2.9188163880        1.1718981835        1.4428134312
 H          3.6102144175        1.4546187235       -0.1575455820
 H          2.0856552746       -0.9730997877        1.5103138186
 H          0.7878539791       -2.1656664752       -0.9837288782
 H          1.3687934881       -3.0038183943        0.4569053753
 H         -1.0609625114       -2.9927156189        0.4998994661
 H         -0.4555221706       -1.9504578380        1.7970051160
 H         -0.7804002238        0.3738285556        1.6942207076
 H         -2.7026599912        1.8834681527        1.0694925840
 H         -2.5054528309        1.4267819990       -0.6354199202
 H         -0.4427520608        2.6090498117        0.8547572677
 H         -1.5538746147       -1.9917682443       -1.6774078717
 H         -2.0655795179       -0.3058525253       -1.7889258904
 H         -3.0691989343       -1.4816832968       -0.9411443609
 H          2.1400414921        0.8801299097       -2.1838173494
 H          0.9131190426       -0.3820560999       -2.0187198351
 H          0.5694679957        1.2637806587       -1.4876306080
