 29

C     -6.149000    -0.668000     5.183000
C     -5.069000    -1.055000     4.207000
C     -4.901000    -0.357000     3.068000
C     -3.895000    -0.591000     1.976000
C     -2.967000     0.612000     1.761000
C     -1.942000     0.404000     0.665000
C     -1.834000     1.163000    -0.442000
C     -0.854000     1.022000    -1.563000
O     -0.093000     2.219000    -1.653000
C     -1.022000    -0.773000     0.865000
C     -4.240000    -2.232000     4.636000
H     -7.078000    -1.196000     4.949000
H     -5.883000    -0.909000     6.218000
H     -6.338000     0.409000     5.132000
H     -5.567000     0.486000     2.883000
H     -3.312000    -1.502000     2.135000
H     -4.455000    -0.765000     1.048000
H     -3.581000     1.483000     1.496000
H     -2.491000     0.888000     2.708000
H     -2.548000     1.975000    -0.576000
H     -1.396000     0.885000    -2.504000
H     -0.165000     0.184000    -1.442000
H      0.533000     2.099000    -2.386000
H     -1.452000    -1.672000     0.410000
H     -0.865000    -0.964000     1.931000
H     -0.038000    -0.614000     0.411000
H     -4.689000    -3.161000     4.270000
H     -3.211000    -2.198000     4.275000
H     -4.194000    -2.279000     5.729000
