15
CONF2
C -2.6554694829 0.6705802494 0.0939295697
C -1.2730287397 0.1614754117 0.4907723216
C -0.5707697769 -0.5417118263 -0.6663373619
C 0.8191997373 -1.0852915716 -0.2901381824
C 1.7344925149 -0.0282844006 0.0910042377
N 2.4524262129 0.8314873648 0.3869669246
H -3.2955225454 -0.1533787783 -0.2408765421
H -3.1538021308 1.1622466977 0.9351909496
H -2.5860365482 1.3948719212 -0.7253186824
H -0.6566683503 1.0020197093 0.8361430460
H -1.3592488841 -0.5337771256 1.3356684472
H -0.4709137727 0.1405990680 -1.5181075877
H -1.1685687750 -1.3960034772 -1.0021163262
H 0.7458140038 -1.7846182083 0.5511631080
H 1.2676230190 -1.6269985722 -1.1300048533
15
CONF1
C -2.9543716456 0.4975910563 0.0002227226
C -1.7781704548 -0.4736187503 -0.0023522620
C -0.4386801088 0.2571182653 0.0018649591
C 0.7370750888 -0.7359705561 0.0007884534
C 2.0164297781 -0.0592417384 0.0008573788
N 3.0264344122 0.5089413464 0.0005146314
H -3.9097461764 -0.0363581925 -0.0037217642
H -2.9316091910 1.1388781925 0.8882602381
H -2.9288285842 1.1469037371 -0.8819005168
H -1.8345098759 -1.1297284010 0.8754555966
H -1.8326091067 -1.1226994237 -0.8854866187
H -0.3647247196 0.8992736538 0.8867547211
H -0.3621679201 0.9044338946 -0.8790354779
H 0.6974909170 -1.3839958416 0.8841692604
H 0.6968495921 -1.3827791745 -0.8834607341
15
CONF4
C -2.0766549664 0.7061122592 0.5696299762
C -1.3656270039 0.2606325080 -0.7055792054
C -0.5528889656 -1.0226695499 -0.5397459495
C 0.5516384817 -0.9346099507 0.5322319644
C 1.4732490208 0.1543872878 0.2791948303
N 2.1977815776 1.0310677731 0.0569335086
H -2.7024514756 -0.0989579553 0.9719732259
H -1.3651301125 1.0000668129 1.3487465606
H -2.7221010100 1.5682527072 0.3746579466
H -2.1044341970 0.0916043244 -1.4973273975
H -0.7092513078 1.0650325232 -1.0631004072
H -0.0927693579 -1.2981882514 -1.4941502070
H -1.2118378727 -1.8465617600 -0.2440477359
H 0.1246496935 -0.7850798571 1.5300337530
H 1.1304055625 -1.8638655774 0.5635204705
15
CONF3
C -2.5490793778 0.3145234177 -0.6240791341
C -1.8487033673 -0.4045025433 0.5258078675
C -0.4040474883 0.0437524580 0.7463101990
C 0.4971086962 -0.3002547816 -0.4556333376
C 1.8802602461 0.0411829267 -0.2011569750
N 2.9807857820 0.3208764499 0.0308702014
H -2.5076264496 1.4012820672 -0.4884478491
H -2.0945986242 0.0792630121 -1.5919328785
H -3.6028907544 0.0238455375 -0.6794323683
H -2.4017328137 -0.2261048330 1.4552769893
H -1.8672068387 -1.4884406992 0.3542794530
H 0.0026821302 -0.4441185955 1.6380967308
H -0.3685157230 1.1255266915 0.9187560236
H 0.4489802844 -1.3732781427 -0.6767704481
H 0.1821490631 0.2367898649 -1.3568081564
15
CONF5
C -1.5197625592 1.1296171896 -0.4116147181
C -1.7662194654 -0.3209408390 -0.0040534908
C -0.6082660958 -0.9756932455 0.7478486646
C 0.7052834804 -1.0626884885 -0.0581974386
C 1.4627956918 0.1724489159 -0.0772003968
N 2.0841756136 1.1507384688 -0.0610007553
H -0.7356611677 1.2103872822 -1.1713078338
H -2.4280252413 1.5713923637 -0.8336049888
H -1.2182784942 1.7367506957 0.4494987263
H -2.6530541753 -0.3714202946 0.6388005399
H -1.9941661701 -0.9175822268 -0.8965934631
H -0.8850720233 -2.0022338680 1.0071383414
H -0.4161107302 -0.4469937578 1.6883503324
H 1.3642752327 -1.8226834177 0.3763424350
H 0.5062379815 -1.3605066424 -1.0946083001
