 24

C      6.048000     2.953000    -1.731000
N      4.973000     2.084000    -1.317000
C      5.111000     0.777000    -0.926000
N      3.956000     0.233000    -0.604000
C      3.045000     1.236000    -0.798000
C      3.644000     2.385000    -1.237000
C      2.952000     3.599000    -1.526000
O      3.508000     4.622000    -1.918000
N      1.556000     3.468000    -1.304000
C      0.863000     2.290000    -0.843000
O     -0.362000     2.278000    -0.678000
N      1.674000     1.155000    -0.593000
C      1.074000    -0.087000    -0.124000
C      0.718000     4.635000    -1.559000
H      6.429000     3.465000    -0.843000
H      6.838000     2.359000    -2.198000
H      5.668000     3.677000    -2.457000
H      6.071000     0.280000    -0.898000
H      0.800000    -0.695000    -0.982000
H      0.188000     0.142000     0.462000
H      1.792000    -0.622000     0.491000
H      0.388000     4.614000    -2.594000
H      1.295000     5.535000    -1.375000
H     -0.143000     4.607000    -0.897000
