  24
 
 C          6.0480000000        2.9530000000       -1.7310000000
 N          4.9730000000        2.0840000000       -1.3170000000
 C          5.1110000000        0.7770000000       -0.9260000000
 N          3.9560000000        0.2330000000       -0.6040000000
 C          3.0450000000        1.2360000000       -0.7980000000
 C          3.6440000000        2.3850000000       -1.2370000000
 C          2.9520000000        3.5990000000       -1.5260000000
 O          3.5080000000        4.6220000000       -1.9180000000
 N          1.5560000000        3.4680000000       -1.3040000000
 C          0.8630000000        2.2900000000       -0.8430000000
 O         -0.3620000000        2.2780000000       -0.6780000000
 N          1.6740000000        1.1550000000       -0.5930000000
 C          1.0740000000       -0.0870000000       -0.1240000000
 C          0.7180000000        4.6350000000       -1.5590000000
 H          6.4290000000        3.4650000000       -0.8430000000
 H          6.8380000000        2.3590000000       -2.1980000000
 H          5.6680000000        3.6770000000       -2.4570000000
 H          6.0710000000        0.2800000000       -0.8980000000
 H          0.8000000000       -0.6950000000       -0.9820000000
 H          0.1880000000        0.1420000000        0.4620000000
 H          1.7920000000       -0.6220000000        0.4910000000
 H          0.3880000000        4.6140000000       -2.5940000000
 H          1.2950000000        5.5350000000       -1.3750000000
 H         -0.1430000000        4.6070000000       -0.8970000000
