 xtb: 6.7.1 (edcfbbe)
          04112511443D

 25 25  0     0  0            999 V2000
    3.0730   -0.4563    1.2780 C   0  0  0  0  0  0  0  0  0  0  0  0
    2.5957    0.0131   -0.0633 C   0  0  0  0  0  0  0  0  0  0  0  0
    3.4396    0.2389   -1.0589 C   0  0  0  0  0  0  0  0  0  0  0  0
    1.1103    0.2046   -0.2518 C   0  0  0  0  0  0  0  0  0  0  0  0
    0.9531    0.6892   -1.2210 H   0  0  0  0  0  0  0  0  0  0  0  0
    0.3650   -1.1369   -0.2811 C   0  0  0  0  0  0  0  0  0  0  0  0
   -1.0749   -0.9098   -0.7285 C   0  0  0  0  0  0  0  0  0  0  0  0
   -1.7165    0.2072    0.0451 C   0  0  0  0  0  0  0  0  0  0  0  0
   -0.9994    1.1009    0.7451 C   0  0  0  0  0  0  0  0  0  0  0  0
    0.4824    1.0891    0.8303 C   0  0  0  0  0  0  0  0  0  0  0  0
   -3.1632    0.2987    0.0225 C   0  0  0  0  0  0  0  0  0  0  0  0
   -3.9136   -0.4634   -0.5612 O   0  0  0  0  0  0  0  0  0  0  0  0
    4.1021   -0.7988    1.2150 H   0  0  0  0  0  0  0  0  0  0  0  0
    3.0331    0.3575    2.0008 H   0  0  0  0  0  0  0  0  0  0  0  0
    2.4556   -1.2715    1.6474 H   0  0  0  0  0  0  0  0  0  0  0  0
    3.1073    0.5857   -2.0230 H   0  0  0  0  0  0  0  0  0  0  0  0
    4.5002    0.0855   -0.9525 H   0  0  0  0  0  0  0  0  0  0  0  0
    0.8622   -1.8260   -0.9648 H   0  0  0  0  0  0  0  0  0  0  0  0
    0.3663   -1.5824    0.7145 H   0  0  0  0  0  0  0  0  0  0  0  0
   -1.1073   -0.6604   -1.7932 H   0  0  0  0  0  0  0  0  0  0  0  0
   -1.6740   -1.8142   -0.5995 H   0  0  0  0  0  0  0  0  0  0  0  0
   -1.5107    1.8749    1.3021 H   0  0  0  0  0  0  0  0  0  0  0  0
    0.8631    2.1100    0.7559 H   0  0  0  0  0  0  0  0  0  0  0  0
    0.7540    0.7204    1.8238 H   0  0  0  0  0  0  0  0  0  0  0  0
   -3.5818    1.1468    0.5974 H   0  0  0  0  0  0  0  0  0  0  0  0
  1  2  1  0  0  0  0
  2  3  2  0  0  0  0
  2  4  1  0  0  0  0
  4  5  1  0  0  0  0
  4  6  1  0  0  0  0
  6  7  1  0  0  0  0
  7  8  1  0  0  0  0
  8  9  2  0  0  0  0
  4 10  1  0  0  0  0
  9 10  1  0  0  0  0
  8 11  1  0  0  0  0
 11 12  2  0  0  0  0
  1 13  1  0  0  0  0
  1 14  1  0  0  0  0
  1 15  1  0  0  0  0
  3 16  1  0  0  0  0
  3 17  1  0  0  0  0
  6 18  1  0  0  0  0
  6 19  1  0  0  0  0
  7 20  1  0  0  0  0
  7 21  1  0  0  0  0
  9 22  1  0  0  0  0
 10 23  1  0  0  0  0
 10 24  1  0  0  0  0
 11 25  1  0  0  0  0
M  END
