15
 xtb: 6.7.1 (edcfbbe)
C           -2.21263518775672       -0.85120703183964        0.22631231279864
C           -1.55387600963679        0.51610236710208        0.31454671882962
S            0.06700874608327        0.63325235025279       -0.54943933699108
C            1.09179359497055       -0.46423154681325        0.51883854016689
C            2.55583734797984       -0.34774403342893        0.12361067258525
H           -3.18047537040112       -0.82865215762058        0.74061348906783
H           -2.38436659121983       -1.14011815740098       -0.81474552310262
H           -1.60204893338853       -1.62367217068601        0.70265141263499
H           -1.40414690395002        0.81558930013582        1.35783508401699
H           -2.18191386698042        1.27858887129115       -0.15801933944672
H            0.94291366518940       -0.15803076299179        1.56013030932803
H            0.74828009994516       -1.49739987908276        0.41064447640937
H            3.15965087625892       -1.01333589043775        0.74882989726786
H            2.71193395607638       -0.63623165195068       -0.92089315268399
H            2.92542684890019        0.67351868892477        0.25742960482797
