 xtb: 6.7.1 (edcfbbe)
          04112512393D

 17 16  0     0  0            999 V2000
   -3.2496    0.5060   -0.0523 C   0  0  0  0  0  0  0  0  0  0  0  0
   -1.9661   -0.2793    0.1845 C   0  0  0  0  0  0  0  0  0  0  0  0
   -0.7319    0.5904   -0.0379 C   0  0  0  0  0  0  0  0  0  0  0  0
    0.5495   -0.1693    0.1745 C   0  0  0  0  0  0  0  0  0  0  0  0
    0.6373   -1.3478    0.4445 O   0  0  0  0  0  0  0  0  0  0  0  0
    1.6112    0.6215    0.0278 O   0  0  0  0  0  0  0  0  0  0  0  0
    2.9025    0.0304    0.1967 C   0  0  0  0  0  0  0  0  0  0  0  0
   -4.1154   -0.1292    0.1121 H   0  0  0  0  0  0  0  0  0  0  0  0
   -3.3094    1.3524    0.6273 H   0  0  0  0  0  0  0  0  0  0  0  0
   -3.2854    0.8795   -1.0727 H   0  0  0  0  0  0  0  0  0  0  0  0
   -1.9224   -1.1373   -0.4887 H   0  0  0  0  0  0  0  0  0  0  0  0
   -1.9488   -0.6687    1.2040 H   0  0  0  0  0  0  0  0  0  0  0  0
   -0.7303    1.4458    0.6402 H   0  0  0  0  0  0  0  0  0  0  0  0
   -0.7170    0.9856   -1.0558 H   0  0  0  0  0  0  0  0  0  0  0  0
    3.6118    0.8465    0.1030 H   0  0  0  0  0  0  0  0  0  0  0  0
    3.0699   -0.7245   -0.5724 H   0  0  0  0  0  0  0  0  0  0  0  0
    2.9719   -0.4412    1.1776 H   0  0  0  0  0  0  0  0  0  0  0  0
  1  2  1  0  0  0  0
  2  3  1  0  0  0  0
  3  4  1  0  0  0  0
  4  5  2  0  0  0  0
  4  6  1  0  0  0  0
  6  7  1  0  0  0  0
  1  8  1  0  0  0  0
  1  9  1  0  0  0  0
  1 10  1  0  0  0  0
  2 11  1  0  0  0  0
  2 12  1  0  0  0  0
  3 13  1  0  0  0  0
  3 14  1  0  0  0  0
  7 15  1  0  0  0  0
  7 16  1  0  0  0  0
  7 17  1  0  0  0  0
M  END
