  16
 
 C         -1.0260069496       -2.1993624485        0.0085092286
 C         -0.1761135053       -0.9695411027        0.0010923523
 C          1.2052331748       -1.0518881316        0.0483936932
 C          1.9989348349        0.0910298559        0.0406990000
 C          1.4005960570        1.3433214657       -0.0157989586
 C          0.0220523002        1.4443335225       -0.0637966388
 C         -0.7522470542        0.2989081905       -0.0554691293
 Cl        -2.4775268711        0.4551266378       -0.1160806989
 O          3.3476279024       -0.0675399412        0.0896730128
 H         -1.6244095219       -2.2483131478       -0.9006962241
 H         -0.4117349418       -3.0929973101        0.0757813851
 H         -1.7138608487       -2.1761073341        0.8524479478
 H          1.6939514675       -2.0121964068        0.0919376012
 H          2.0078085798        2.2379014296       -0.0221565839
 H         -0.4506259388        2.4129677759       -0.1075564983
 H          3.7814536113        0.7941394430        0.0777021650
          16
        -27.17722568
 C         -1.0595829122       -2.1762006962       -0.0000480326
 C         -0.1949571684       -0.9565018148        0.0000361398
 C          1.1860958883       -1.0557245492        0.0001684546
 C          1.9932098340        0.0777381495        0.0001043693
 C          1.4085161114        1.3377151297        0.0000421422
 C          0.0304855779        1.4558339390        0.0000107036
 C         -0.7571463311        0.3195299109        0.0000001074
 Cl        -2.4811846323        0.4969043734       -0.0000276167
 O          3.3408727977       -0.0972617795       -0.0001876713
 H         -1.7037653044       -2.1805157428        0.8782779890
 H         -1.7035992661       -2.1805224976       -0.8784975819
 H         -0.4546079192       -3.0781774474        0.0000007958
 H          1.6632623672       -2.0229820217        0.0001132901
 H          2.0264607309        2.2250515802       -0.0000423987
 H         -0.4310818926        2.4307541435        0.0000557542
 H          3.7835611702        0.7600304909        0.0003021501
