 16

C      1.968000    -1.033000    -1.605000
C      1.885000    -1.036000    -0.112000
C      2.921000    -1.631000     0.608000
C      2.878000    -1.652000     2.002000
C      1.800000    -1.079000     2.676000
C      0.764000    -0.484000     1.955000
C      0.807000    -0.463000     0.561000
Cl    -0.493000     0.282000    -0.296000
O      3.889000    -2.232000     2.706000
H      2.486000    -0.132000    -1.948000
H      2.509000    -1.913000    -1.968000
H      0.969000    -1.059000    -2.052000
H      3.764000    -2.078000     0.087000
H      1.761000    -1.092000     3.762000
H     -0.070000    -0.042000     2.495000
H      3.716000    -2.167000     3.659000
