  16
 
 C          1.9680000000       -1.0330000000       -1.6050000000
 C          1.8850000000       -1.0360000000       -0.1120000000
 C          2.9210000000       -1.6310000000        0.6080000000
 C          2.8780000000       -1.6520000000        2.0020000000
 C          1.8000000000       -1.0790000000        2.6760000000
 C          0.7640000000       -0.4840000000        1.9550000000
 C          0.8070000000       -0.4630000000        0.5610000000
 Cl        -0.4930000000        0.2820000000       -0.2960000000
 O          3.8890000000       -2.2320000000        2.7060000000
 H          2.4860000000       -0.1320000000       -1.9480000000
 H          2.5090000000       -1.9130000000       -1.9680000000
 H          0.9690000000       -1.0590000000       -2.0520000000
 H          3.7640000000       -2.0780000000        0.0870000000
 H          1.7610000000       -1.0920000000        3.7620000000
 H         -0.0700000000       -0.0420000000        2.4950000000
 H          3.7160000000       -2.1670000000        3.6590000000
