 33

C     -2.622000     2.383000     0.254000
C     -3.147000     2.205000    -1.162000
C     -3.248000     0.727000    -1.539000
C     -3.778000     0.551000    -2.965000
C     -3.878000    -0.929000    -3.339000
C     -4.403000    -1.164000    -4.758000
C     -4.503000    -2.644000    -5.133000
C     -5.033000    -2.820000    -6.558000
C     -5.134000    -4.301000    -6.935000
C     -5.659000    -4.502000    -8.351000
O     -5.733000    -5.888000    -8.649000
H     -2.552000     3.444000     0.515000
H     -1.628000     1.936000     0.363000
H     -3.292000     1.900000     0.971000
H     -4.133000     2.678000    -1.242000
H     -2.480000     2.723000    -1.861000
H     -2.261000     0.257000    -1.454000
H     -3.913000     0.214000    -0.834000
H     -3.110000     1.071000    -3.661000
H     -4.766000     1.020000    -3.049000
H     -2.897000    -1.407000    -3.226000
H     -4.556000    -1.430000    -2.637000
H     -3.762000    -0.642000    -5.479000
H     -5.398000    -0.708000    -4.833000
H     -5.169000    -3.158000    -4.428000
H     -3.519000    -3.119000    -5.056000
H     -4.366000    -2.308000    -7.263000
H     -6.018000    -2.346000    -6.642000
H     -4.147000    -4.772000    -6.849000
H     -5.804000    -4.802000    -6.226000
H     -4.982000    -4.031000    -9.071000
H     -6.655000    -4.062000    -8.466000
H     -6.071000    -5.963000    -9.556000
