 xtb: 6.7.1 (edcfbbe)
          04112511323D

 21 20  0     0  0            999 V2000
   -2.5962   -0.3476   -0.6906 C   0  0  0  0  0  0  0  0  0  0  0  0
   -1.7379    0.0545    0.5051 C   0  0  0  0  0  0  0  0  0  0  0  0
   -0.4894    0.8566    0.1084 C   0  0  0  0  0  0  0  0  0  0  0  0
    0.8316    0.0623    0.0272 C   0  0  0  0  0  0  0  0  0  0  0  0
    1.9342    0.9865   -0.4993 C   0  0  0  0  0  0  0  0  0  0  0  0
    0.7202   -1.1680   -0.8789 C   0  0  0  0  0  0  0  0  0  0  0  0
    1.2549   -0.3285    1.3323 O   0  0  0  0  0  0  0  0  0  0  0  0
   -3.4676   -0.9067   -0.3566 H   0  0  0  0  0  0  0  0  0  0  0  0
   -2.0388   -0.9661   -1.3878 H   0  0  0  0  0  0  0  0  0  0  0  0
   -2.9419    0.5376   -1.2196 H   0  0  0  0  0  0  0  0  0  0  0  0
   -2.3494    0.6630    1.1744 H   0  0  0  0  0  0  0  0  0  0  0  0
   -1.4548   -0.8409    1.0625 H   0  0  0  0  0  0  0  0  0  0  0  0
   -0.6619    1.3331   -0.8571 H   0  0  0  0  0  0  0  0  0  0  0  0
   -0.3236    1.6496    0.8412 H   0  0  0  0  0  0  0  0  0  0  0  0
    2.8856    0.4616   -0.4823 H   0  0  0  0  0  0  0  0  0  0  0  0
    2.0172    1.8628    0.1380 H   0  0  0  0  0  0  0  0  0  0  0  0
    1.7151    1.2999   -1.5150 H   0  0  0  0  0  0  0  0  0  0  0  0
   -0.0169   -1.8699   -0.4981 H   0  0  0  0  0  0  0  0  0  0  0  0
    1.6827   -1.6732   -0.9193 H   0  0  0  0  0  0  0  0  0  0  0  0
    0.4397   -0.8675   -1.8839 H   0  0  0  0  0  0  0  0  0  0  0  0
    0.5817   -0.8983    1.7268 H   0  0  0  0  0  0  0  0  0  0  0  0
  1  2  1  0  0  0  0
  2  3  1  0  0  0  0
  3  4  1  0  0  0  0
  4  5  1  0  0  0  0
  4  6  1  0  0  0  0
  4  7  1  0  0  0  0
  1  8  1  0  0  0  0
  1  9  1  0  0  0  0
  1 10  1  0  0  0  0
  2 11  1  0  0  0  0
  2 12  1  0  0  0  0
  3 13  1  0  0  0  0
  3 14  1  0  0  0  0
  5 15  1  0  0  0  0
  5 16  1  0  0  0  0
  5 17  1  0  0  0  0
  6 18  1  0  0  0  0
  6 19  1  0  0  0  0
  6 20  1  0  0  0  0
  7 21  1  0  0  0  0
M  END
