 xtb: 6.7.1 (edcfbbe)
          04112512153D

 21 20  0     0  0            999 V2000
    2.1303   -0.9121    0.1201 C   0  0  0  0  0  0  0  0  0  0  0  0
    1.1590   -0.0558    0.9295 C   0  0  0  0  0  0  0  0  0  0  0  0
    0.1750    0.7875    0.0875 C   0  0  0  0  0  0  0  0  0  0  0  0
   -0.0298    1.7142    0.6390 H   0  0  0  0  0  0  0  0  0  0  0  0
   -1.1959    0.1210   -0.1781 C   0  0  0  0  0  0  0  0  0  0  0  0
   -1.1014   -1.2893   -0.7574 C   0  0  0  0  0  0  0  0  0  0  0  0
   -2.0556    0.1128    1.0844 C   0  0  0  0  0  0  0  0  0  0  0  0
    0.7561    1.2474   -1.1199 O   0  0  0  0  0  0  0  0  0  0  0  0
    2.7780   -1.4595    0.8009 H   0  0  0  0  0  0  0  0  0  0  0  0
    2.7576   -0.2812   -0.5057 H   0  0  0  0  0  0  0  0  0  0  0  0
    1.6132   -1.6324   -0.5069 H   0  0  0  0  0  0  0  0  0  0  0  0
    0.5847   -0.6877    1.6062 H   0  0  0  0  0  0  0  0  0  0  0  0
    1.7499    0.6274    1.5426 H   0  0  0  0  0  0  0  0  0  0  0  0
   -1.6890    0.7624   -0.9195 H   0  0  0  0  0  0  0  0  0  0  0  0
   -2.0985   -1.6443   -1.0086 H   0  0  0  0  0  0  0  0  0  0  0  0
   -0.5044   -1.3073   -1.6661 H   0  0  0  0  0  0  0  0  0  0  0  0
   -0.6716   -1.9772   -0.0343 H   0  0  0  0  0  0  0  0  0  0  0  0
   -3.0461   -0.2725    0.8558 H   0  0  0  0  0  0  0  0  0  0  0  0
   -2.1616    1.1180    1.4852 H   0  0  0  0  0  0  0  0  0  0  0  0
   -1.6149   -0.5181    1.8522 H   0  0  0  0  0  0  0  0  0  0  0  0
    0.9192    0.4840   -1.6904 H   0  0  0  0  0  0  0  0  0  0  0  0
  1  2  1  0  0  0  0
  2  3  1  0  0  0  0
  3  4  1  0  0  0  0
  3  5  1  0  0  0  0
  5  6  1  0  0  0  0
  5  7  1  0  0  0  0
  3  8  1  0  0  0  0
  1  9  1  0  0  0  0
  1 10  1  0  0  0  0
  1 11  1  0  0  0  0
  2 12  1  0  0  0  0
  2 13  1  0  0  0  0
  5 14  1  0  0  0  0
  6 15  1  0  0  0  0
  6 16  1  0  0  0  0
  6 17  1  0  0  0  0
  7 18  1  0  0  0  0
  7 19  1  0  0  0  0
  7 20  1  0  0  0  0
  8 21  1  0  0  0  0
M  END
