 xtb: 6.7.1 (edcfbbe)
          04112511193D

 14 13  0     0  0            999 V2000
   -1.0705   -0.5665   -0.1854 C   0  0  0  0  0  0  0  0  0  0  0  0
    0.0058    0.1913    0.6021 C   0  0  0  0  0  0  0  0  0  0  0  0
    1.3267   -0.5941    0.6257 C   0  0  0  0  0  0  0  0  0  0  0  0
    1.8379   -0.8007   -0.6690 O   0  0  0  0  0  0  0  0  0  0  0  0
    0.1859    1.4397   -0.0459 O   0  0  0  0  0  0  0  0  0  0  0  0
   -2.2996    0.1173   -0.1853 O   0  0  0  0  0  0  0  0  0  0  0  0
   -1.2547   -1.5346    0.2820 H   0  0  0  0  0  0  0  0  0  0  0  0
   -0.7160   -0.7266   -1.2110 H   0  0  0  0  0  0  0  0  0  0  0  0
   -0.3485    0.3396    1.6304 H   0  0  0  0  0  0  0  0  0  0  0  0
    1.1669   -1.5818    1.0599 H   0  0  0  0  0  0  0  0  0  0  0  0
    2.0625   -0.0531    1.2380 H   0  0  0  0  0  0  0  0  0  0  0  0
    1.8162    0.0497   -1.1360 H   0  0  0  0  0  0  0  0  0  0  0  0
    0.6717    2.0425    0.5324 H   0  0  0  0  0  0  0  0  0  0  0  0
   -2.1423    1.0103   -0.5276 H   0  0  0  0  0  0  0  0  0  0  0  0
  1  2  1  0  0  0  0
  2  3  1  0  0  0  0
  3  4  1  0  0  0  0
  2  5  1  0  0  0  0
  1  6  1  0  0  0  0
  1  7  1  0  0  0  0
  1  8  1  0  0  0  0
  2  9  1  0  0  0  0
  3 10  1  0  0  0  0
  3 11  1  0  0  0  0
  4 12  1  0  0  0  0
  5 13  1  0  0  0  0
  6 14  1  0  0  0  0
M  END
