 20

C     -0.497000    -2.034000     0.494000
C      0.350000    -1.028000     0.039000
C      1.648000    -1.337000    -0.366000
C      2.117000    -2.660000    -0.322000
C      3.421000    -2.990000    -0.727000
C      3.869000    -4.310000    -0.676000
C      3.023000    -5.317000    -0.221000
C      1.724000    -5.007000     0.185000
C      1.256000    -3.684000     0.140000
C     -0.048000    -3.354000     0.545000
N      5.182000    -4.624000    -1.085000
H     -1.508000    -1.793000     0.809000
H     -0.000000     0.000000     0.000000
H      2.292000    -0.534000    -0.719000
H      4.092000    -2.210000    -1.084000
H      3.363000    -6.348000    -0.177000
H      1.079000    -5.810000     0.537000
H     -0.727000    -4.125000     0.902000
H      5.765000    -3.900000    -1.454000
H      5.476000    -5.580000    -1.089000
