21
 xtb: 6.7.1 (edcfbbe)
C           -3.17653993004487        1.27382734099182       -0.58747101254926
O           -2.39071363091217        1.09048518422822        0.62361541390007
C           -1.21412116263549        0.41307943337277        0.46240778384453
C           -1.14364876852295       -0.97726515434492        0.36236863028698
C            0.06582284572722       -1.65294766868149        0.25810042518813
C            1.23642569811497       -0.90562750547784        0.24712900520586
C            1.21726072536868        0.48504948241420        0.33328245249470
C           -0.01661548555771        1.13963523999501        0.44009274482143
O           -0.08565875629717        2.49475897510432        0.52893227421399
O            2.35850086179837        1.25114298609724        0.35859494805076
C            2.85915011967891        1.57779401882131       -0.96853818275715
Cl           2.77598056030676       -1.73090113397461        0.14621028126536
Cl          -2.63100655376406       -1.89765444386186        0.39250722005752
H           -3.40836596376529        2.33851968494374       -0.67153566408172
H           -4.10137377298386        0.69718349638693       -0.50597587498697
H           -2.61306837093673        0.94998671483317       -1.46629848902544
H            0.09495412336586       -2.73331526634164        0.19468806120828
H            0.82297807545200        2.83801177134438        0.55558130328750
H            2.10826990472522        2.14844159126641       -1.52500191212028
H            3.11792608038891        0.66608030055748       -1.51511168265473
H            3.75143379779803        2.18478964874341       -0.81171025546642
