  15
 
 C         -0.6363735411       -1.4409040013        0.1550748541
 C         -0.5056301432       -0.0014525122       -0.3335841544
 C         -1.7530766382        0.8077129115        0.0063252084
 C          0.7357164523        0.6531587363        0.2765185239
 O          1.8867883623       -0.0056239207       -0.2090198252
 H          0.2776716397       -1.9867002074       -0.0616485378
 H         -1.4672345698       -1.9372479316       -0.3403522731
 H         -0.8101118366       -1.4625152445        1.2293473456
 H         -0.3648448357       -0.0127676754       -1.4189168212
 H         -1.6745906094        1.8233388859       -0.3753151021
 H         -1.8920109253        0.8553871507        1.0846975972
 H         -2.6324694686        0.3428632000       -0.4321658975
 H          0.7628659221        1.7179614134       -0.0001314057
 H          0.6864454502        0.5848408024        1.3734649240
 H          2.6664081651        0.3883162081        0.1938611315
          15
        -17.72514534
 C         -0.6381598487       -1.4492231466        0.1329489109
 C         -0.5024575354       -0.0032060797       -0.3364417795
 C         -1.7520736933        0.8025497520        0.0047511861
 C          0.7369780510        0.6450341686        0.2943023456
 O          1.9397454530        0.0110594499       -0.0705554087
 H         -1.4378126316       -1.9544370698       -0.4037225453
 H         -0.8618457599       -1.4782449262        1.1969773097
 H          0.2916938078       -1.9873011513       -0.0352781281
 H         -0.3680717088        0.0010742473       -1.4265396313
 H         -2.6299798403        0.3463614123       -0.4463287599
 H         -1.6673588834        1.8232044732       -0.3622195621
 H         -1.8969561109        0.8361082930        1.0822460718
 H          0.7716672408        1.7118292003        0.0250357726
 H          0.6866313538        0.5670092149        1.3828220986
 H          2.0098455696        0.0165794642       -1.0317791306
