 15

C      0.998000    -0.358000    -0.274000
C      1.818000     0.747000    -0.944000
C      1.158000     1.180000    -2.251000
C      1.999000     1.949000    -0.013000
O      2.675000     1.548000     1.171000
H      1.467000    -0.673000     0.664000
H      0.914000    -1.237000    -0.922000
H     -0.013000    -0.012000    -0.038000
H      2.808000     0.329000    -1.171000
H      1.738000     1.971000    -2.737000
H      0.151000     1.570000    -2.067000
H      1.074000     0.342000    -2.952000
H      2.600000     2.725000    -0.499000
H      1.032000     2.381000     0.267000
H      2.765000     2.340000     1.724000
