  15
 
 C          0.9980000000       -0.3580000000       -0.2740000000
 C          1.8180000000        0.7470000000       -0.9440000000
 C          1.1580000000        1.1800000000       -2.2510000000
 C          1.9990000000        1.9490000000       -0.0130000000
 O          2.6750000000        1.5480000000        1.1710000000
 H          1.4670000000       -0.6730000000        0.6640000000
 H          0.9140000000       -1.2370000000       -0.9220000000
 H         -0.0130000000       -0.0120000000       -0.0380000000
 H          2.8080000000        0.3290000000       -1.1710000000
 H          1.7380000000        1.9710000000       -2.7370000000
 H          0.1510000000        1.5700000000       -2.0670000000
 H          1.0740000000        0.3420000000       -2.9520000000
 H          2.6000000000        2.7250000000       -0.4990000000
 H          1.0320000000        2.3810000000        0.2670000000
 H          2.7650000000        2.3400000000        1.7240000000
