 xtb: 6.7.1 (edcfbbe)
          04112511323D

 21 20  0     0  0            999 V2000
   -2.2575    0.6065   -0.9825 C   0  0  0  0  0  0  0  0  0  0  0  0
   -1.8536   -0.3888    0.0994 C   0  0  0  0  0  0  0  0  0  0  0  0
   -0.5953   -0.0162    0.8876 C   0  0  0  0  0  0  0  0  0  0  0  0
    0.7683   -0.0447    0.1597 C   0  0  0  0  0  0  0  0  0  0  0  0
    1.0410    1.2436   -0.6236 C   0  0  0  0  0  0  0  0  0  0  0  0
    0.9104   -1.2638   -0.7517 C   0  0  0  0  0  0  0  0  0  0  0  0
    1.7890   -0.1994    1.1541 O   0  0  0  0  0  0  0  0  0  0  0  0
   -2.2604    1.6203   -0.5893 H   0  0  0  0  0  0  0  0  0  0  0  0
   -3.2583    0.3757   -1.3408 H   0  0  0  0  0  0  0  0  0  0  0  0
   -1.5829    0.5653   -1.8327 H   0  0  0  0  0  0  0  0  0  0  0  0
   -2.6690   -0.4531    0.8245 H   0  0  0  0  0  0  0  0  0  0  0  0
   -1.7360   -1.3793   -0.3408 H   0  0  0  0  0  0  0  0  0  0  0  0
   -0.7355    0.9782    1.3205 H   0  0  0  0  0  0  0  0  0  0  0  0
   -0.5086   -0.7262    1.7155 H   0  0  0  0  0  0  0  0  0  0  0  0
    2.0704    1.2358   -0.9760 H   0  0  0  0  0  0  0  0  0  0  0  0
    0.8982    2.1154    0.0119 H   0  0  0  0  0  0  0  0  0  0  0  0
    0.3826    1.3285   -1.4800 H   0  0  0  0  0  0  0  0  0  0  0  0
    1.9374   -1.3228   -1.1030 H   0  0  0  0  0  0  0  0  0  0  0  0
    0.2466   -1.1891   -1.6059 H   0  0  0  0  0  0  0  0  0  0  0  0
    0.6893   -2.1697   -0.1938 H   0  0  0  0  0  0  0  0  0  0  0  0
    1.7889    0.5785    1.7272 H   0  0  0  0  0  0  0  0  0  0  0  0
  1  2  1  0  0  0  0
  2  3  1  0  0  0  0
  3  4  1  0  0  0  0
  4  5  1  0  0  0  0
  4  6  1  0  0  0  0
  4  7  1  0  0  0  0
  1  8  1  0  0  0  0
  1  9  1  0  0  0  0
  1 10  1  0  0  0  0
  2 11  1  0  0  0  0
  2 12  1  0  0  0  0
  3 13  1  0  0  0  0
  3 14  1  0  0  0  0
  5 15  1  0  0  0  0
  5 16  1  0  0  0  0
  5 17  1  0  0  0  0
  6 18  1  0  0  0  0
  6 19  1  0  0  0  0
  6 20  1  0  0  0  0
  7 21  1  0  0  0  0
M  END
