 xtb: 6.7.1 (edcfbbe)
          04112511193D

 14 13  0     0  0            999 V2000
   -1.3627   -0.3520   -0.4316 C   0  0  0  0  0  0  0  0  0  0  0  0
   -0.0018   -0.0582    0.2114 C   0  0  0  0  0  0  0  0  0  0  0  0
    1.1406   -0.7687   -0.5245 C   0  0  0  0  0  0  0  0  0  0  0  0
    2.3725   -0.5954    0.1340 O   0  0  0  0  0  0  0  0  0  0  0  0
    0.2329    1.3361    0.2678 O   0  0  0  0  0  0  0  0  0  0  0  0
   -2.4225    0.1988    0.3132 O   0  0  0  0  0  0  0  0  0  0  0  0
   -1.5381   -1.4279   -0.4685 H   0  0  0  0  0  0  0  0  0  0  0  0
   -1.3760    0.0441   -1.4582 H   0  0  0  0  0  0  0  0  0  0  0  0
   -0.0168   -0.3839    1.2567 H   0  0  0  0  0  0  0  0  0  0  0  0
    1.2061   -0.3878   -1.5548 H   0  0  0  0  0  0  0  0  0  0  0  0
    0.9571   -1.8433   -0.5588 H   0  0  0  0  0  0  0  0  0  0  0  0
    2.4551    0.3377    0.3851 H   0  0  0  0  0  0  0  0  0  0  0  0
    0.2620    1.6887   -0.6349 H   0  0  0  0  0  0  0  0  0  0  0  0
   -2.1850    1.1068    0.5582 H   0  0  0  0  0  0  0  0  0  0  0  0
  1  2  1  0  0  0  0
  2  3  1  0  0  0  0
  3  4  1  0  0  0  0
  2  5  1  0  0  0  0
  1  6  1  0  0  0  0
  1  7  1  0  0  0  0
  1  8  1  0  0  0  0
  2  9  1  0  0  0  0
  3 10  1  0  0  0  0
  3 11  1  0  0  0  0
  4 12  1  0  0  0  0
  5 13  1  0  0  0  0
  6 14  1  0  0  0  0
M  END
