 xtb: 6.7.1 (edcfbbe)
          04112511153D

 29 28  0     0  0            999 V2000
   -2.7775    1.0434    0.2642 C   0  0  0  0  0  0  0  0  0  0  0  0
   -2.2387   -0.1278   -0.5556 C   0  0  0  0  0  0  0  0  0  0  0  0
   -2.5988   -1.4542    0.1115 C   0  0  0  0  0  0  0  0  0  0  0  0
   -0.7309   -0.0034   -0.8287 C   0  0  0  0  0  0  0  0  0  0  0  0
    0.1448   -0.0185    0.4232 C   0  0  0  0  0  0  0  0  0  0  0  0
    1.6598    0.1094    0.1729 C   0  0  0  0  0  0  0  0  0  0  0  0
    2.1803   -1.0555   -0.6729 C   0  0  0  0  0  0  0  0  0  0  0  0
    1.9954    1.4332   -0.5186 C   0  0  0  0  0  0  0  0  0  0  0  0
    2.3609    0.0769    1.5367 C   0  0  0  0  0  0  0  0  0  0  0  0
   -2.4018    1.0092    1.2836 H   0  0  0  0  0  0  0  0  0  0  0  0
   -3.8637    1.0038    0.3047 H   0  0  0  0  0  0  0  0  0  0  0  0
   -2.4852    1.9908   -0.1828 H   0  0  0  0  0  0  0  0  0  0  0  0
   -2.7325   -0.1031   -1.5354 H   0  0  0  0  0  0  0  0  0  0  0  0
   -2.2233   -1.4906    1.1309 H   0  0  0  0  0  0  0  0  0  0  0  0
   -3.6794   -1.5744    0.1466 H   0  0  0  0  0  0  0  0  0  0  0  0
   -2.1787   -2.2894   -0.4443 H   0  0  0  0  0  0  0  0  0  0  0  0
   -0.4410   -0.8279   -1.4824 H   0  0  0  0  0  0  0  0  0  0  0  0
   -0.5664    0.9279   -1.3736 H   0  0  0  0  0  0  0  0  0  0  0  0
   -0.0261   -0.9513    0.9637 H   0  0  0  0  0  0  0  0  0  0  0  0
   -0.1555    0.8037    1.0752 H   0  0  0  0  0  0  0  0  0  0  0  0
    1.7833   -1.0142   -1.6836 H   0  0  0  0  0  0  0  0  0  0  0  0
    3.2656   -1.0156   -0.7366 H   0  0  0  0  0  0  0  0  0  0  0  0
    1.8983   -2.0071   -0.2278 H   0  0  0  0  0  0  0  0  0  0  0  0
    1.6037    1.4563   -1.5321 H   0  0  0  0  0  0  0  0  0  0  0  0
    1.5763    2.2706    0.0350 H   0  0  0  0  0  0  0  0  0  0  0  0
    3.0741    1.5637   -0.5724 H   0  0  0  0  0  0  0  0  0  0  0  0
    2.1485   -0.8557    2.0548 H   0  0  0  0  0  0  0  0  0  0  0  0
    2.0221    0.9005    2.1614 H   0  0  0  0  0  0  0  0  0  0  0  0
    3.4384    0.1619    1.4147 H   0  0  0  0  0  0  0  0  0  0  0  0
  1  2  1  0  0  0  0
  2  3  1  0  0  0  0
  2  4  1  0  0  0  0
  4  5  1  0  0  0  0
  5  6  1  0  0  0  0
  6  7  1  0  0  0  0
  6  8  1  0  0  0  0
  6  9  1  0  0  0  0
  1 10  1  0  0  0  0
  1 11  1  0  0  0  0
  1 12  1  0  0  0  0
  2 13  1  0  0  0  0
  3 14  1  0  0  0  0
  3 15  1  0  0  0  0
  3 16  1  0  0  0  0
  4 17  1  0  0  0  0
  4 18  1  0  0  0  0
  5 19  1  0  0  0  0
  5 20  1  0  0  0  0
  7 21  1  0  0  0  0
  7 22  1  0  0  0  0
  7 23  1  0  0  0  0
  8 24  1  0  0  0  0
  8 25  1  0  0  0  0
  8 26  1  0  0  0  0
  9 27  1  0  0  0  0
  9 28  1  0  0  0  0
  9 29  1  0  0  0  0
M  END
