14
 xtb: 6.7.1 (edcfbbe)
C            1.79015979226008       -0.37319777519201        0.53123305821561
O            1.03316378178589       -0.13271910856021       -0.65694666748625
C            0.04280440542680        0.89249188346205       -0.48902930502021
C           -1.08987074628906        0.50204771518304        0.45146954902579
N           -1.79314935676046       -0.73981648419619        0.09252414867336
H            2.20952825040636        0.56398359881977        0.92606549396766
H            2.60839775838147       -1.04464679118665        0.25745325788794
H            1.18929826767959       -0.85234945228675        1.31608804455418
H            0.52403923603360        1.81756801115020       -0.13084477374120
H           -0.35637749298640        1.07514140799952       -1.49347757934044
H           -0.71686985342737        0.41082429611855        1.47765113636462
H           -1.80526081335570        1.33298711722717        0.45847119488285
H           -1.10173965045623       -1.48437338533095        0.05218510741572
H           -2.12478950412712       -0.64516808273998       -0.86464534392022
