  13
 
 C         -1.7371784880       -0.6491076469        0.1741924380
 O         -0.9712496313        0.2971935379       -0.5435155854
 C          0.0211859501        0.9053085041        0.2235881170
 O          1.0341040164        0.0382763476        0.6315185310
 C          1.8264568593       -0.4437192786       -0.4347415385
 H         -2.4451146317       -1.0717978742       -0.5353398345
 H         -2.2779489963       -0.1649595111        0.9957173939
 H         -1.1033574990       -1.4408634177        0.5844974593
 H          0.4202888692        1.7138784063       -0.4081530556
 H         -0.3947839285        1.3211098552        1.1542441659
 H          2.5343399170       -1.1442595454        0.0023562988
 H          2.3673388250        0.3791745152       -0.9169004154
 H          1.2135382516       -0.9532943404       -1.1842412680
          13
        -18.61882856
 C         -1.7871718893       -0.5834903664        0.3122118639
 O         -0.9995953912        0.1468283509       -0.6062552966
 C         -0.0000452260        0.9068303091       -0.0006345010
 O          1.0001021049        0.1482531527        0.6060134215
 C          1.7867383832       -0.5843776623       -0.3113522969
 H         -1.1692718147       -1.2525917815        0.9179883417
 H         -2.4897895112       -1.1643365784       -0.2809195517
 H         -2.3337170092        0.0953382947        0.9768244665
 H          0.4112345817        1.5366724603       -0.8044407727
 H         -0.4115572087        1.5376400005        0.8022962465
 H          2.4892864227       -1.1645625060        0.2825004773
 H          2.3334156240        0.0927186248       -0.9776423300
 H          1.1680603261       -1.2542518244       -0.9154494342
