 13

C      1.108000     0.108000     0.030000
O      1.391000     1.500000     0.086000
C      2.763000     1.760000     0.381000
O      3.677000     1.221000    -0.573000
C      3.784000     2.034000    -1.734000
H      0.050000    -0.041000    -0.198000
H      1.353000    -0.353000     0.991000
H      1.715000    -0.348000    -0.755000
H      2.899000     2.846000     0.447000
H      3.012000     1.346000     1.365000
H      4.492000     1.579000    -2.428000
H      4.123000     3.030000    -1.446000
H      2.803000     2.103000    -2.205000
