 xtb: 6.7.1 (edcfbbe)
          04112512083D

 22 22  0     0  0            999 V2000
   -4.2016    1.4512    0.1894 C   0  0  0  0  0  0  0  0  0  0  0  0
   -3.4791    0.1293    0.0160 C   0  0  0  0  0  0  0  0  0  0  0  0
   -2.0669    0.3816    0.0463 O   0  0  0  0  0  0  0  0  0  0  0  0
   -1.2591   -0.6702   -0.0871 C   0  0  0  0  0  0  0  0  0  0  0  0
   -1.6854   -1.8057   -0.2309 O   0  0  0  0  0  0  0  0  0  0  0  0
    0.1673   -0.3203   -0.0428 C   0  0  0  0  0  0  0  0  0  0  0  0
    0.5976    0.9964    0.1219 C   0  0  0  0  0  0  0  0  0  0  0  0
    1.9441    1.2875    0.1602 C   0  0  0  0  0  0  0  0  0  0  0  0
    2.8881    0.2675    0.0346 C   0  0  0  0  0  0  0  0  0  0  0  0
    2.4592   -1.0520   -0.1311 C   0  0  0  0  0  0  0  0  0  0  0  0
    1.1149   -1.3391   -0.1690 C   0  0  0  0  0  0  0  0  0  0  0  0
    4.2136    0.5005    0.0663 O   0  0  0  0  0  0  0  0  0  0  0  0
   -5.2726    1.2791    0.1695 H   0  0  0  0  0  0  0  0  0  0  0  0
   -3.9281    1.9026    1.1384 H   0  0  0  0  0  0  0  0  0  0  0  0
   -3.9321    2.1303   -0.6140 H   0  0  0  0  0  0  0  0  0  0  0  0
   -3.7255   -0.3475   -0.9390 H   0  0  0  0  0  0  0  0  0  0  0  0
   -3.7222   -0.5762    0.8180 H   0  0  0  0  0  0  0  0  0  0  0  0
   -0.1331    1.7829    0.2190 H   0  0  0  0  0  0  0  0  0  0  0  0
    2.2684    2.3092    0.2881 H   0  0  0  0  0  0  0  0  0  0  0  0
    3.2012   -1.8280   -0.2268 H   0  0  0  0  0  0  0  0  0  0  0  0
    0.7666   -2.3527   -0.2960 H   0  0  0  0  0  0  0  0  0  0  0  0
    4.4053    1.4448    0.1851 H   0  0  0  0  0  0  0  0  0  0  0  0
  1  2  1  0  0  0  0
  2  3  1  0  0  0  0
  3  4  1  0  0  0  0
  4  5  2  0  0  0  0
  4  6  1  0  0  0  0
  6  7  4  0  0  0  0
  7  8  4  0  0  0  0
  8  9  4  0  0  0  0
  9 10  4  0  0  0  0
  6 11  4  0  0  0  0
 10 11  4  0  0  0  0
  9 12  1  0  0  0  0
  1 13  1  0  0  0  0
  1 14  1  0  0  0  0
  1 15  1  0  0  0  0
  2 16  1  0  0  0  0
  2 17  1  0  0  0  0
  7 18  1  0  0  0  0
  8 19  1  0  0  0  0
 10 20  1  0  0  0  0
 11 21  1  0  0  0  0
 12 22  1  0  0  0  0
M  END
