 xtb: 6.7.1 (edcfbbe)
          04112511573D

 25 25  0     0  0            999 V2000
    3.6029    0.4094   -0.7117 C   0  0  0  0  0  0  0  0  0  0  0  0
    2.5733   -0.0221    0.2863 C   0  0  0  0  0  0  0  0  0  0  0  0
    2.8987   -0.4355    1.5010 C   0  0  0  0  0  0  0  0  0  0  0  0
    1.1386    0.0433   -0.1907 C   0  0  0  0  0  0  0  0  0  0  0  0
    1.1334    0.3755   -1.2333 H   0  0  0  0  0  0  0  0  0  0  0  0
    0.4523   -1.3261   -0.1325 C   0  0  0  0  0  0  0  0  0  0  0  0
   -0.9164   -1.2535   -0.8036 C   0  0  0  0  0  0  0  0  0  0  0  0
   -1.7123   -0.0948   -0.2723 C   0  0  0  0  0  0  0  0  0  0  0  0
   -1.1354    0.9302    0.3773 C   0  0  0  0  0  0  0  0  0  0  0  0
    0.3203    1.0467    0.6316 C   0  0  0  0  0  0  0  0  0  0  0  0
   -3.1500   -0.1015   -0.4763 C   0  0  0  0  0  0  0  0  0  0  0  0
   -3.9282    0.7655   -0.1177 O   0  0  0  0  0  0  0  0  0  0  0  0
    3.4170    1.4371   -1.0210 H   0  0  0  0  0  0  0  0  0  0  0  0
    4.6046    0.3436   -0.2966 H   0  0  0  0  0  0  0  0  0  0  0  0
    3.5488   -0.2193   -1.5995 H   0  0  0  0  0  0  0  0  0  0  0  0
    2.1634   -0.7509    2.2213 H   0  0  0  0  0  0  0  0  0  0  0  0
    3.9235   -0.4805    1.8276 H   0  0  0  0  0  0  0  0  0  0  0  0
    1.0715   -2.0737   -0.6297 H   0  0  0  0  0  0  0  0  0  0  0  0
    0.3312   -1.6269    0.9085 H   0  0  0  0  0  0  0  0  0  0  0  0
   -0.7959   -1.1357   -1.8844 H   0  0  0  0  0  0  0  0  0  0  0  0
   -1.4674   -2.1813   -0.6373 H   0  0  0  0  0  0  0  0  0  0  0  0
   -1.7709    1.7225    0.7518 H   0  0  0  0  0  0  0  0  0  0  0  0
    0.6450    2.0681    0.4206 H   0  0  0  0  0  0  0  0  0  0  0  0
    0.4937    0.8825    1.6997 H   0  0  0  0  0  0  0  0  0  0  0  0
   -3.5351   -0.9904   -1.0108 H   0  0  0  0  0  0  0  0  0  0  0  0
  1  2  1  0  0  0  0
  2  3  2  0  0  0  0
  2  4  1  0  0  0  0
  4  5  1  0  0  0  0
  4  6  1  0  0  0  0
  6  7  1  0  0  0  0
  7  8  1  0  0  0  0
  8  9  2  0  0  0  0
  4 10  1  0  0  0  0
  9 10  1  0  0  0  0
  8 11  1  0  0  0  0
 11 12  2  0  0  0  0
  1 13  1  0  0  0  0
  1 14  1  0  0  0  0
  1 15  1  0  0  0  0
  3 16  1  0  0  0  0
  3 17  1  0  0  0  0
  6 18  1  0  0  0  0
  6 19  1  0  0  0  0
  7 20  1  0  0  0  0
  7 21  1  0  0  0  0
  9 22  1  0  0  0  0
 10 23  1  0  0  0  0
 10 24  1  0  0  0  0
 11 25  1  0  0  0  0
M  END
