  26
 
 C          5.4015284871        0.3135580099       -0.0004202180
 C          4.1157800008       -0.5038618316        0.0010013230
 C          2.8755035268        0.3868259180        0.0046257867
 C          1.5860829959       -0.4306264211        0.0044478867
 C          0.3462097695        0.4595518749        0.0030247720
 C         -0.9285764413       -0.3697022569        0.0014293235
 O         -2.0510885305        0.5134330048        0.0194837996
 C         -3.2581756157       -0.0595675303        0.0174006281
 O         -3.4303666732       -1.2498275367        0.0078894204
 C         -4.3506063928        0.9776116682        0.0097509133
 H          6.2706250637       -0.3399771584       -0.0023060941
 H          5.4482687324        0.9494545117       -0.8818209066
 H          5.4511684542        0.9482647195        0.8816713297
 H          4.0973708771       -1.1501153565        0.8813822078
 H          4.0938966727       -1.1472861061       -0.8813355005
 H          2.8937972728        1.0335273096       -0.8755192636
 H          2.8961092167        1.0300116917        0.8872806865
 H          1.5666459223       -1.0754719038        0.8858834909
 H          1.5678062943       -1.0766280124       -0.8762018327
 H          0.3502304141        1.1033171003       -0.8782075256
 H          0.3475435405        1.1023059400        0.8850572271
 H         -0.9895067478       -1.0032317660       -0.8908292106
 H         -0.9783017948       -1.0223891248        0.8805357137
 H         -4.5885275938        1.2225733945       -1.0238107201
 H         -4.0156896080        1.8780485048        0.5147950114
 H         -5.2396997564        0.5738047780        0.4843737118
          26
        -33.44568429
 C          4.7126149336        0.7551033347       -0.4071598528
 C          3.4522775801        0.5408448200        0.4222007632
 C          2.3906117213       -0.2385216258       -0.3502589228
 C          1.1207417242       -0.4471726805        0.4702884025
 C          0.0643571545       -1.2302477650       -0.3057994300
 C         -1.2257255923       -1.4001382901        0.4924592121
 O         -1.8314500736       -0.1431572087        0.7947931076
 C         -2.5909096193        0.4136035240       -0.1543016281
 O         -2.8168871362       -0.0924523919       -1.2213035652
 C         -3.1142756891        1.7526119616        0.2976804505
 H          5.4560223711        1.3095456992        0.1607828101
 H          5.1448434001       -0.2000787020       -0.6979318277
 H          4.4833571978        1.3151756787       -1.3112990552
 H          3.0439573657        1.5099454541        0.7184356931
 H          3.7064647906       -0.0032895112        1.3348857318
 H          2.7968970415       -1.2105558079       -0.6400671320
 H          2.1435206436        0.3015984295       -1.2671978531
 H          0.7090715427        0.5228592779        0.7571727453
 H          1.3659789325       -0.9861692452        1.3886172814
 H          0.4435005655       -2.2228324040       -0.5554111377
 H         -0.1692665642       -0.7143901551       -1.2392706967
 H         -1.9392749783       -2.0081131906       -0.0736916138
 H         -1.0279947029       -1.8609077220        1.4625743765
 H         -2.4133188538        2.5229029287       -0.0191263834
 H         -3.1976400395        1.7774355032        1.3796169121
 H         -4.0748485624        1.9460859709       -0.1703020950
