 26

C      1.756000    -1.390000     0.892000
C      1.158000    -1.870000     2.206000
C     -0.123000    -1.107000     2.546000
C     -0.766000    -1.552000     3.862000
C     -2.046000    -0.790000     4.202000
C     -2.648000    -1.267000     5.517000
O     -3.830000    -0.524000     5.778000
C     -4.490000    -0.840000     6.933000
O     -4.154000    -1.692000     7.744000
C     -5.710000     0.020000     7.076000
H      2.671000    -1.948000     0.666000
H      1.055000    -1.538000     0.064000
H      2.010000    -0.327000     0.941000
H      1.895000    -1.736000     3.006000
H      0.953000    -2.942000     2.125000
H     -0.846000    -1.213000     1.728000
H      0.108000    -0.037000     2.624000
H     -0.036000    -1.401000     4.667000
H     -0.975000    -2.628000     3.823000
H     -2.792000    -0.909000     3.408000
H     -1.841000     0.286000     4.266000
H     -2.908000    -2.329000     5.464000
H     -1.950000    -1.112000     6.346000
H     -6.565000    -0.469000     6.603000
H     -5.529000     0.999000     6.626000
H     -5.932000     0.161000     8.137000
