  7
 
 C         -0.6180000000       -0.7480000000        0.5040000000
 N         -1.8490000000       -0.9390000000       -0.2110000000
 H         -0.2700000000       -1.7000000000        0.9140000000
 H         -0.7640000000       -0.0430000000        1.3270000000
 H          0.1500000000       -0.3500000000       -0.1650000000
 H         -2.7180000000       -0.9540000000        0.3000000000
 H         -1.8190000000       -1.2560000000       -1.1680000000
