 12

C      1.885000    -1.036000    -0.112000
C      2.921000    -1.631000     0.608000
C      2.878000    -1.652000     2.002000
C      1.800000    -1.079000     2.676000
C      0.764000    -0.484000     1.955000
C      0.807000    -0.463000     0.561000
Cl    -0.439000     0.255000    -0.403000
Cl    -0.586000     0.236000     2.784000
Cl     1.759000    -1.111000     4.415000
Cl     4.200000    -2.409000     2.824000
H      1.935000    -1.029000    -1.198000
H      3.754000    -2.073000     0.066000
