 22

C      1.885000    -1.036000    -0.112000
C      2.921000    -1.631000     0.608000
C      2.878000    -1.652000     2.002000
C      1.800000    -1.079000     2.676000
C      0.764000    -0.484000     1.955000
C      0.807000    -0.463000     0.561000
Cl    -0.483000     0.277000    -0.351000
Cl    -0.585000     0.234000     2.795000
Cl     1.748000    -1.103000     4.418000
Cl     4.175000    -2.394000     2.900000
Cl     4.264000    -2.345000    -0.245000
C      1.929000    -1.016000    -1.569000
C      2.533000     0.052000    -2.233000
C      2.574000     0.072000    -3.628000
C      2.011000    -0.975000    -4.357000
C      1.407000    -2.042000    -3.693000
C      1.366000    -2.063000    -2.299000
Cl     0.614000    -3.392000    -1.457000
Cl     0.704000    -3.352000    -4.603000
Cl     2.064000    -0.949000    -6.100000
Cl     3.331000     1.407000    -4.455000
Cl     3.232000     1.356000    -1.310000
