  12
 
 C          1.1879424583       -1.2079657731       -0.0002808348
 C          1.8708130146       -0.0011128596       -0.0001637624
 C          1.1894249082        1.2065785833        0.0000057577
 C         -0.1968397682        1.2015904620        0.0000372270
 C         -0.9067021410        0.0005929059       -0.0000856848
 C         -0.1983149726       -1.2012705820       -0.0002324043
 Cl        -1.0493999578       -2.6905701002       -0.0004795249
 Cl        -2.6223344896        0.0016450130       -0.0001291479
 Cl        -1.0460983761        2.6919242165        0.0002099221
 Cl         3.5885237456       -0.0021665189       -0.0001403763
 H          1.7224637533       -2.1437768897       -0.0004048811
 H          1.7251007287        2.1417280884        0.0001347204
          12
        -32.07387429
 C          1.1941630750       -1.2072170427        0.0000686719
 C          1.8763018726        0.0000836803       -0.0000575207
 C          1.1941364124        1.2072533897       -0.0001435848
 C         -0.1920883703        1.2013297058       -0.0000482704
 C         -0.9012197817       -0.0000002091        0.0001361471
 C         -0.1919924357       -1.2013955431        0.0001489841
 Cl        -1.0423362559       -2.6911800891       -0.0001927807
 Cl        -2.6169085734       -0.0001155792        0.0001984995
 Cl        -1.0424964231        2.6912258167       -0.0001236796
 Cl         3.5940748097        0.0000453760        0.0000867415
 H          1.7293605023       -2.1426058889        0.0000814864
 H          1.7290349907        2.1428235386       -0.0002277856
