  12
 
 C          1.8850000000       -1.0360000000       -0.1120000000
 C          2.9210000000       -1.6310000000        0.6080000000
 C          2.8780000000       -1.6520000000        2.0020000000
 C          1.8000000000       -1.0790000000        2.6760000000
 C          0.7640000000       -0.4840000000        1.9550000000
 C          0.8070000000       -0.4630000000        0.5610000000
 Cl        -0.4410000000        0.2560000000       -0.4000000000
 Cl        -0.5810000000        0.2290000000        2.7940000000
 Cl         1.8170000000       -1.1430000000        4.4050000000
 Cl         4.2520000000       -2.3390000000       -0.2230000000
 H          1.9220000000       -1.0210000000       -1.2000000000
 H          3.6880000000       -2.1170000000        2.5610000000
