 xtb: 6.7.1 (edcfbbe)
          04112511223D

 15 14  0     0  0            999 V2000
    1.9772   -0.8237   -0.0299 C   0  0  0  0  0  0  0  0  0  0  0  0
    1.3294    0.5319    0.2298 C   0  0  0  0  0  0  0  0  0  0  0  0
   -0.0498    0.6496   -0.4196 C   0  0  0  0  0  0  0  0  0  0  0  0
   -1.0965   -0.1789    0.2663 C   0  0  0  0  0  0  0  0  0  0  0  0
   -2.3841   -0.1364   -0.0229 C   0  0  0  0  0  0  0  0  0  0  0  0
    1.3542   -1.6312    0.3467 H   0  0  0  0  0  0  0  0  0  0  0  0
    2.9466   -0.8825    0.4593 H   0  0  0  0  0  0  0  0  0  0  0  0
    2.1210   -0.9760   -1.0976 H   0  0  0  0  0  0  0  0  0  0  0  0
    1.2365    0.6953    1.3059 H   0  0  0  0  0  0  0  0  0  0  0  0
    1.9772    1.3159   -0.1683 H   0  0  0  0  0  0  0  0  0  0  0  0
    0.0214    0.3425   -1.4671 H   0  0  0  0  0  0  0  0  0  0  0  0
   -0.3675    1.6955   -0.4153 H   0  0  0  0  0  0  0  0  0  0  0  0
   -0.7453   -0.8381    1.0486 H   0  0  0  0  0  0  0  0  0  0  0  0
   -3.1077   -0.7388    0.4990 H   0  0  0  0  0  0  0  0  0  0  0  0
   -2.7700    0.5112   -0.7936 H   0  0  0  0  0  0  0  0  0  0  0  0
  1  2  1  0  0  0  0
  2  3  1  0  0  0  0
  3  4  1  0  0  0  0
  4  5  2  0  0  0  0
  1  6  1  0  0  0  0
  1  7  1  0  0  0  0
  1  8  1  0  0  0  0
  2  9  1  0  0  0  0
  2 10  1  0  0  0  0
  3 11  1  0  0  0  0
  3 12  1  0  0  0  0
  4 13  1  0  0  0  0
  5 14  1  0  0  0  0
  5 15  1  0  0  0  0
M  END
