 xtb: 6.7.1 (edcfbbe)
          04112511243D

 18 17  0     0  0            999 V2000
    1.9151   -0.3780    0.8538 C   0  0  0  0  0  0  0  0  0  0  0  0
    1.5028    0.2894   -0.4530 C   0  0  0  0  0  0  0  0  0  0  0  0
    0.2409   -0.2853   -1.1026 C   0  0  0  0  0  0  0  0  0  0  0  0
   -1.0830   -0.0016   -0.3664 C   0  0  0  0  0  0  0  0  0  0  0  0
   -1.8883   -0.0411   -1.1221 H   0  0  0  0  0  0  0  0  0  0  0  0
   -1.4138   -1.0408    0.7071 C   0  0  0  0  0  0  0  0  0  0  0  0
   -1.0300    1.3107    0.1674 O   0  0  0  0  0  0  0  0  0  0  0  0
    1.2434   -0.0986    1.6602 H   0  0  0  0  0  0  0  0  0  0  0  0
    2.9175   -0.0588    1.1308 H   0  0  0  0  0  0  0  0  0  0  0  0
    1.9154   -1.4609    0.7506 H   0  0  0  0  0  0  0  0  0  0  0  0
    1.3501    1.3558   -0.2819 H   0  0  0  0  0  0  0  0  0  0  0  0
    2.3159    0.1788   -1.1745 H   0  0  0  0  0  0  0  0  0  0  0  0
    0.1646    0.1560   -2.0987 H   0  0  0  0  0  0  0  0  0  0  0  0
    0.3441   -1.3646   -1.2215 H   0  0  0  0  0  0  0  0  0  0  0  0
   -2.3966   -0.8421    1.1303 H   0  0  0  0  0  0  0  0  0  0  0  0
   -1.4262   -2.0324    0.2644 H   0  0  0  0  0  0  0  0  0  0  0  0
   -0.6811   -1.0212    1.5067 H   0  0  0  0  0  0  0  0  0  0  0  0
   -1.8540    1.4918    0.6380 H   0  0  0  0  0  0  0  0  0  0  0  0
  1  2  1  0  0  0  0
  2  3  1  0  0  0  0
  3  4  1  0  0  0  0
  4  5  1  0  0  0  0
  4  6  1  0  0  0  0
  4  7  1  0  0  0  0
  1  8  1  0  0  0  0
  1  9  1  0  0  0  0
  1 10  1  0  0  0  0
  2 11  1  0  0  0  0
  2 12  1  0  0  0  0
  3 13  1  0  0  0  0
  3 14  1  0  0  0  0
  6 15  1  0  0  0  0
  6 16  1  0  0  0  0
  6 17  1  0  0  0  0
  7 18  1  0  0  0  0
M  END
