  12
 
 C         -0.0003206495       -2.1198858279       -0.0000517670
 C          1.2034759422       -1.4367498608        0.0002005527
 C          1.1917846031       -0.0502868215        0.0003229654
 C          0.0001153878        0.6574865960        0.0000415931
 C         -1.1917693053       -0.0499160696       -0.0002530284
 C         -1.2039173973       -1.4363820535       -0.0002365327
 Cl        -2.6827029944        0.8181235155       -0.0003388054
 Cl         2.6830041554        0.8172941501        0.0003026002
 H         -0.0005466494       -3.1991276742        0.0000180318
 H          2.1414437350       -1.9682578324        0.0002471227
 H          0.0003005508        1.7354221151       -0.0000006944
 H         -2.1420566401       -1.9675777707       -0.0002587160
          12
        -23.98283570
 C         -0.0000569546       -2.1147046083        0.0000589257
 C          1.2035873882       -1.4312529141       -0.0000966343
 C          1.1919415173       -0.0449846008       -0.0001399889
 C          0.0000374469        0.6622522474       -0.0005044333
 C         -1.1919184685       -0.0448562020       -0.0003495082
 C         -1.2035834125       -1.4311115887       -0.0000281669
 Cl        -2.6832515399        0.8225931038        0.0001745329
 Cl         2.6832463633        0.8226083401        0.0001640237
 H         -0.0002478015       -3.1937701352        0.0010257787
 H          2.1413142060       -1.9634492661        0.0001596306
 H          0.0003012561        1.7400381413       -0.0010918053
 H         -2.1412751500       -1.9632965228        0.0006271840
