 xtb: 6.7.1 (edcfbbe)
          04112511403D

 22 23  0     0  0            999 V2000
   -3.2429   -0.0064   -0.9029 C   0  0  0  0  0  0  0  0  0  0  0  0
   -2.7470    1.2649   -0.6707 C   0  0  0  0  0  0  0  0  0  0  0  0
   -1.5898    1.4341    0.0704 C   0  0  0  0  0  0  0  0  0  0  0  0
   -0.9231    0.3343    0.5915 C   0  0  0  0  0  0  0  0  0  0  0  0
   -1.4255   -0.9390    0.3535 C   0  0  0  0  0  0  0  0  0  0  0  0
   -2.5794   -1.1089   -0.3901 C   0  0  0  0  0  0  0  0  0  0  0  0
    0.3596    0.5052    1.3710 C   0  0  0  0  0  0  0  0  0  0  0  0
    1.4880    0.0594    0.5862 N   0  0  0  0  0  0  0  0  0  0  0  0
    2.1118   -1.1512    0.6602 C   0  0  0  0  0  0  0  0  0  0  0  0
    3.0595   -1.1503   -0.3220 C   0  0  0  0  0  0  0  0  0  0  0  0
    3.0249    0.0293   -1.0005 N   0  0  0  0  0  0  0  0  0  0  0  0
    2.0709    0.7232   -0.4342 C   0  0  0  0  0  0  0  0  0  0  0  0
   -4.1438   -0.1387   -1.4824 H   0  0  0  0  0  0  0  0  0  0  0  0
   -3.2599    2.1270   -1.0692 H   0  0  0  0  0  0  0  0  0  0  0  0
   -1.2057    2.4281    0.2471 H   0  0  0  0  0  0  0  0  0  0  0  0
   -0.9091   -1.8010    0.7499 H   0  0  0  0  0  0  0  0  0  0  0  0
   -2.9617   -2.1024   -0.5693 H   0  0  0  0  0  0  0  0  0  0  0  0
    0.5062    1.5568    1.6287 H   0  0  0  0  0  0  0  0  0  0  0  0
    0.3297   -0.0881    2.2878 H   0  0  0  0  0  0  0  0  0  0  0  0
    1.8506   -1.8876    1.3912 H   0  0  0  0  0  0  0  0  0  0  0  0
    3.7636   -1.9141   -0.5846 H   0  0  0  0  0  0  0  0  0  0  0  0
    1.7804    1.7101   -0.7331 H   0  0  0  0  0  0  0  0  0  0  0  0
  1  2  4  0  0  0  0
  2  3  4  0  0  0  0
  3  4  4  0  0  0  0
  4  5  4  0  0  0  0
  1  6  4  0  0  0  0
  5  6  4  0  0  0  0
  4  7  1  0  0  0  0
  7  8  1  0  0  0  0
  8  9  4  0  0  0  0
  9 10  2  0  0  0  0
 10 11  4  0  0  0  0
  8 12  4  0  0  0  0
 11 12  2  0  0  0  0
  1 13  1  0  0  0  0
  2 14  1  0  0  0  0
  3 15  1  0  0  0  0
  5 16  1  0  0  0  0
  6 17  1  0  0  0  0
  7 18  1  0  0  0  0
  7 19  1  0  0  0  0
  9 20  1  0  0  0  0
 10 21  1  0  0  0  0
 12 22  1  0  0  0  0
M  END
