  18
 
 C          1.4116947001       -1.4187899908       -0.2126222585
 C          1.0879328515       -0.0297324852        0.3340034239
 C          2.2020792502        0.9475911964       -0.0371698482
 C         -0.2503093889        0.4910436438       -0.1958646537
 C         -1.4582548049       -0.3035619378        0.2903677498
 O         -2.6250732886        0.3764862342       -0.1278247244
 H          0.6903857154       -2.1550249360        0.1312167538
 H          2.3985735167       -1.7332340878        0.1191435105
 H          1.4039188369       -1.4078125831       -1.3001690851
 H          1.0291534664       -0.0899943036        1.4270659177
 H          2.0022440080        1.9342567642        0.3739194072
 H          2.2811649942        1.0362317807       -1.1183750104
 H          3.1582534776        0.6022651329        0.3496572502
 H         -0.2457725072        0.4852873126       -1.2869909184
 H         -0.3925674603        1.5240859685        0.1267608363
 H         -1.4450279188       -1.3196157405       -0.1265408959
 H         -1.4340035541       -0.3798646884        1.3881771277
 H         -3.3987719134       -0.1228275967        0.1521441762
          18
        -20.88884868
 C          1.3119683672       -1.4037465847        0.1106324362
 C          0.8364909727        0.0391767004        0.2584681098
 C          2.0255199733        0.9925042806        0.1578260582
 C         -0.2154787292        0.3926633456       -0.8001312218
 C         -1.5826015405       -0.2350642346       -0.5218740304
 O         -2.1305539591        0.1658363843        0.7116435935
 H          2.0569912213       -1.6338618546        0.8688603781
 H          1.7608119131       -1.5573062780       -0.8691009508
 H          0.4866723807       -2.1007838288        0.2267280346
 H          0.3746773492        0.1540823935        1.2451663526
 H          2.4899281020        0.9149900442       -0.8234045098
 H          2.7724337082        0.7498362731        0.9100752110
 H          1.7128424458        2.0237803808        0.3086955384
 H          0.1257735544        0.0686919711       -1.7851361952
 H         -0.3377145451        1.4801102528       -0.8314228829
 H         -2.2707778422        0.0168348190       -1.3436920823
 H         -1.5070951952       -1.3222261690       -0.4643611371
 H         -2.1573880146        1.1291324751        0.7358035068
