 18

C      0.199000    -1.077000     0.012000
C     -0.686000    -1.817000    -0.995000
C     -2.158000    -1.637000    -0.619000
C     -0.381000    -1.324000    -2.419000
C      1.065000    -1.544000    -2.847000
O      1.228000    -1.052000    -4.172000
H      1.258000    -1.194000    -0.241000
H      0.048000    -1.458000     1.028000
H     -0.026000    -0.005000     0.014000
H     -0.444000    -2.885000    -0.933000
H     -2.814000    -2.157000    -1.325000
H     -2.432000    -0.576000    -0.622000
H     -2.362000    -2.021000     0.385000
H     -0.605000    -0.251000    -2.491000
H     -1.049000    -1.810000    -3.142000
H      1.754000    -1.003000    -2.190000
H      1.326000    -2.606000    -2.846000
H      2.155000    -1.206000    -4.415000
