  18
 
 C          0.1990000000       -1.0770000000        0.0120000000
 C         -0.6860000000       -1.8170000000       -0.9950000000
 C         -2.1580000000       -1.6370000000       -0.6190000000
 C         -0.3810000000       -1.3240000000       -2.4190000000
 C          1.0650000000       -1.5440000000       -2.8470000000
 O          1.2280000000       -1.0520000000       -4.1720000000
 H          1.2580000000       -1.1940000000       -0.2410000000
 H          0.0480000000       -1.4580000000        1.0280000000
 H         -0.0260000000       -0.0050000000        0.0140000000
 H         -0.4440000000       -2.8850000000       -0.9330000000
 H         -2.8140000000       -2.1570000000       -1.3250000000
 H         -2.4320000000       -0.5760000000       -0.6220000000
 H         -2.3620000000       -2.0210000000        0.3850000000
 H         -0.6050000000       -0.2510000000       -2.4910000000
 H         -1.0490000000       -1.8100000000       -3.1420000000
 H          1.7540000000       -1.0030000000       -2.1900000000
 H          1.3260000000       -2.6060000000       -2.8460000000
 H          2.1550000000       -1.2060000000       -4.4150000000
