  11
 
 C         -2.8109745961        0.3384417529       -0.0005114686
 O         -1.4140035851        0.6368944010        0.0000547489
 C         -0.5968122000       -0.3912575952       -0.0001057869
 O         -0.8869072355       -1.5501513971       -0.0005252941
 C          0.8851541149        0.0961882117        0.0002441471
 F          0.9891389497        1.4257348161        0.0038393898
 F          1.5317253606       -0.3602896481        1.0767223867
 F          1.5300749177       -0.3542925645       -1.0798017841
 H         -3.3201980337        1.2978467496        0.0060870017
 H         -3.0693048933       -0.2449643510        0.8844774864
 H         -3.0708844935       -0.2332437226       -0.8926571480
          11
        -30.27788158
 C         -2.7928537811        0.3922284307        0.0003673745
 O         -1.3868079737        0.6459927453       -0.0008467320
 C         -0.6003351666       -0.4067722722        0.0000469151
 O         -0.9202431452       -1.5567758120       -0.0002013276
 C          0.8837598301        0.0703691125       -0.0000042688
 F          1.7282313120       -0.9564095069       -0.0071042851
 F          1.1484184428        0.8230761663       -1.0738983012
 F          1.1519982930        0.8111819351        1.0814553266
 H         -3.0566771992       -0.2606776232       -0.8327421498
 H         -3.2704986576        1.3625804934       -0.1003419602
 H         -3.0841548972       -0.0864980387        0.9363009200
