 21

C      1.263000     0.137000    -2.252000
C      1.929000    -1.014000    -1.566000
O      2.468000    -1.871000    -2.259000
C      1.885000    -1.036000    -0.112000
C      2.921000    -1.631000     0.608000
C      2.878000    -1.652000     2.002000
C      1.800000    -1.079000     2.676000
C      0.764000    -0.484000     1.955000
C      0.807000    -0.463000     0.561000
O      1.757000    -1.099000     4.036000
C      2.849000    -1.722000     4.710000
H      0.201000    -0.034000    -2.488000
H      1.765000     0.438000    -3.184000
H      1.250000     1.054000    -1.637000
H      3.766000    -2.081000     0.094000
H      3.689000    -2.116000     2.558000
H     -0.079000    -0.036000     2.474000
H     -0.005000     0.004000     0.009000
H      2.681000    -1.664000     5.785000
H      3.772000    -1.212000     4.438000
H      2.896000    -2.765000     4.399000
