  21
 
 C          1.2630000000        0.1370000000       -2.2520000000
 C          1.9290000000       -1.0140000000       -1.5660000000
 O          2.4680000000       -1.8710000000       -2.2590000000
 C          1.8850000000       -1.0360000000       -0.1120000000
 C          2.9210000000       -1.6310000000        0.6080000000
 C          2.8780000000       -1.6520000000        2.0020000000
 C          1.8000000000       -1.0790000000        2.6760000000
 C          0.7640000000       -0.4840000000        1.9550000000
 C          0.8070000000       -0.4630000000        0.5610000000
 O          1.7570000000       -1.0990000000        4.0360000000
 C          2.8490000000       -1.7220000000        4.7100000000
 H          0.2010000000       -0.0340000000       -2.4880000000
 H          1.7650000000        0.4380000000       -3.1840000000
 H          1.2500000000        1.0540000000       -1.6370000000
 H          3.7660000000       -2.0810000000        0.0940000000
 H          3.6890000000       -2.1160000000        2.5580000000
 H         -0.0790000000       -0.0360000000        2.4740000000
 H         -0.0050000000        0.0040000000        0.0090000000
 H          2.6810000000       -1.6640000000        5.7850000000
 H          3.7720000000       -1.2120000000        4.4380000000
 H          2.8960000000       -2.7650000000        4.3990000000
