 17

C     -0.230000    -0.899000    -0.692000
C      0.431000    -0.623000    -2.034000
C      1.954000    -0.423000    -1.941000
C      2.669000    -1.648000    -1.371000
C      2.520000    -0.090000    -3.324000
H     -1.309000    -1.032000    -0.826000
H     -0.075000    -0.067000     0.002000
H      0.159000    -1.812000    -0.232000
H      0.200000    -1.444000    -2.723000
H     -0.024000     0.281000    -2.459000
H      2.157000     0.430000    -1.281000
H      3.750000    -1.486000    -1.312000
H      2.490000    -2.536000    -1.985000
H      2.306000    -1.875000    -0.362000
H      3.605000     0.057000    -3.284000
H      2.068000     0.825000    -3.720000
H      2.313000    -0.898000    -4.034000
