 xtb: 6.7.1 (edcfbbe)
          04112511593D

 13 12  0     0  0            999 V2000
   -1.9360   -0.2659   -0.5483 C   0  0  0  0  0  0  0  0  0  0  0  0
   -1.0658   -0.2275    0.5651 O   0  0  0  0  0  0  0  0  0  0  0  0
   -0.0573    0.7569    0.4983 C   0  0  0  0  0  0  0  0  0  0  0  0
    1.0829    0.4471   -0.4772 C   0  0  0  0  0  0  0  0  0  0  0  0
    1.8470   -0.6244    0.0333 O   0  0  0  0  0  0  0  0  0  0  0  0
   -2.3579    0.7260   -0.7442 H   0  0  0  0  0  0  0  0  0  0  0  0
   -2.7302   -0.9577   -0.2787 H   0  0  0  0  0  0  0  0  0  0  0  0
   -1.4318   -0.6286   -1.4485 H   0  0  0  0  0  0  0  0  0  0  0  0
   -0.4975    1.7282    0.2322 H   0  0  0  0  0  0  0  0  0  0  0  0
    0.3549    0.8026    1.5084 H   0  0  0  0  0  0  0  0  0  0  0  0
    1.7005    1.3500   -0.5695 H   0  0  0  0  0  0  0  0  0  0  0  0
    0.6746    0.1952   -1.4635 H   0  0  0  0  0  0  0  0  0  0  0  0
    2.5538   -0.8432   -0.5893 H   0  0  0  0  0  0  0  0  0  0  0  0
  1  2  1  0  0  0  0
  2  3  1  0  0  0  0
  3  4  1  0  0  0  0
  4  5  1  0  0  0  0
  1  6  1  0  0  0  0
  1  7  1  0  0  0  0
  1  8  1  0  0  0  0
  3  9  1  0  0  0  0
  3 10  1  0  0  0  0
  4 11  1  0  0  0  0
  4 12  1  0  0  0  0
  5 13  1  0  0  0  0
M  END
