14
 xtb: 6.7.1 (edcfbbe)
C           -2.76749247584574        0.29824533458146       -0.00813911347878
C           -1.35188018278738        0.04301971184678        0.49564131176288
C           -0.32957304198161        0.11900856296613       -0.65539667223248
C            1.04909365309306       -0.16199231975398       -0.14643849231274
O            1.61081993794960       -1.24415381632401       -0.18767733853903
O            1.61941711289283        0.92409101288472        0.42833956132388
H           -2.84744605139917        1.29123177021343       -0.46300978776777
H           -3.48820135642708        0.24324595558951        0.81342771040313
H           -3.05589161524006       -0.44255237116633       -0.76129001405796
H           -1.08691506228286        0.77966225040321        1.26178106131545
H           -1.29069072842491       -0.94696758763557        0.96207614226556
H           -0.57003307790255       -0.62700094485626       -1.41680238447394
H           -0.35932173810485        1.11591792354068       -1.10585862835818
H            2.48705493091296        0.66301075237002        0.78267460340333
