 xtb: 6.7.1 (edcfbbe)
          04112511133D

 21 21  0     0  0            999 V2000
   -3.2349    1.2669    0.0703 C   0  0  0  0  0  0  0  0  0  0  0  0
   -1.9018    0.7245   -0.3251 C   0  0  0  0  0  0  0  0  0  0  0  0
   -1.6900   -0.0279   -1.2516 O   0  0  0  0  0  0  0  0  0  0  0  0
   -0.9280    1.2163    0.4523 O   0  0  0  0  0  0  0  0  0  0  0  0
    0.3950    0.8418    0.2525 C   0  0  0  0  0  0  0  0  0  0  0  0
    1.3401    1.8551    0.1910 C   0  0  0  0  0  0  0  0  0  0  0  0
    2.6755    1.5402    0.0109 C   0  0  0  0  0  0  0  0  0  0  0  0
    3.0675    0.2178   -0.1256 C   0  0  0  0  0  0  0  0  0  0  0  0
    2.1246   -0.7921   -0.0760 C   0  0  0  0  0  0  0  0  0  0  0  0
    0.7769   -0.4946    0.1187 C   0  0  0  0  0  0  0  0  0  0  0  0
   -0.2260   -1.5849    0.2667 C   0  0  0  0  0  0  0  0  0  0  0  0
   -1.0782   -1.5733    1.1311 O   0  0  0  0  0  0  0  0  0  0  0  0
   -0.1229   -2.6177   -0.5592 O   0  0  0  0  0  0  0  0  0  0  0  0
   -3.4640    2.1198   -0.5660 H   0  0  0  0  0  0  0  0  0  0  0  0
   -3.2114    1.5856    1.1069 H   0  0  0  0  0  0  0  0  0  0  0  0
   -3.9922    0.5054   -0.0892 H   0  0  0  0  0  0  0  0  0  0  0  0
    1.0107    2.8764    0.2913 H   0  0  0  0  0  0  0  0  0  0  0  0
    3.4076    2.3303   -0.0260 H   0  0  0  0  0  0  0  0  0  0  0  0
    4.1072   -0.0280   -0.2681 H   0  0  0  0  0  0  0  0  0  0  0  0
    2.4345   -1.8234   -0.1489 H   0  0  0  0  0  0  0  0  0  0  0  0
    0.5460   -2.5017   -1.2592 H   0  0  0  0  0  0  0  0  0  0  0  0
  1  2  1  0  0  0  0
  2  3  2  0  0  0  0
  2  4  1  0  0  0  0
  4  5  1  0  0  0  0
  5  6  4  0  0  0  0
  6  7  4  0  0  0  0
  7  8  4  0  0  0  0
  8  9  4  0  0  0  0
  5 10  4  0  0  0  0
  9 10  4  0  0  0  0
 10 11  1  0  0  0  0
 11 12  2  0  0  0  0
 11 13  1  0  0  0  0
  1 14  1  0  0  0  0
  1 15  1  0  0  0  0
  1 16  1  0  0  0  0
  6 17  1  0  0  0  0
  7 18  1  0  0  0  0
  8 19  1  0  0  0  0
  9 20  1  0  0  0  0
 13 21  1  0  0  0  0
M  END
