 xtb: 6.7.1 (edcfbbe)
          04112511193D

 14 13  0     0  0            999 V2000
   -1.0238   -0.2719   -0.4861 C   0  0  0  0  0  0  0  0  0  0  0  0
    0.1167    0.4078    0.2753 C   0  0  0  0  0  0  0  0  0  0  0  0
    1.4824   -0.0979   -0.2304 C   0  0  0  0  0  0  0  0  0  0  0  0
    1.6485   -1.4845   -0.0728 O   0  0  0  0  0  0  0  0  0  0  0  0
    0.0029    1.8017    0.0864 O   0  0  0  0  0  0  0  0  0  0  0  0
   -2.1626   -0.3217    0.3458 O   0  0  0  0  0  0  0  0  0  0  0  0
   -0.7053   -1.2847   -0.7639 H   0  0  0  0  0  0  0  0  0  0  0  0
   -1.2203    0.3135   -1.3916 H   0  0  0  0  0  0  0  0  0  0  0  0
   -0.0060    0.1554    1.3394 H   0  0  0  0  0  0  0  0  0  0  0  0
    2.2847    0.4511    0.2798 H   0  0  0  0  0  0  0  0  0  0  0  0
    1.5572    0.0981   -1.3027 H   0  0  0  0  0  0  0  0  0  0  0  0
    1.6460   -1.7045    0.8698 H   0  0  0  0  0  0  0  0  0  0  0  0
    0.6121    2.2652    0.6774 H   0  0  0  0  0  0  0  0  0  0  0  0
   -2.9088   -0.6747   -0.1572 H   0  0  0  0  0  0  0  0  0  0  0  0
  1  2  1  0  0  0  0
  2  3  1  0  0  0  0
  3  4  1  0  0  0  0
  2  5  1  0  0  0  0
  1  6  1  0  0  0  0
  1  7  1  0  0  0  0
  1  8  1  0  0  0  0
  2  9  1  0  0  0  0
  3 10  1  0  0  0  0
  3 11  1  0  0  0  0
  4 12  1  0  0  0  0
  5 13  1  0  0  0  0
  6 14  1  0  0  0  0
M  END
