  11
 
 C         -2.8913935685       -0.0702224735       -0.0028353712
 O         -1.6719110176        0.6663447482       -0.0011669950
 C         -0.5498310773       -0.0611843172       -0.0013845957
 O         -0.5182065612       -1.2564283043       -0.0019323495
 C          0.6491938569        0.8725879277        0.0003840841
 Cl         2.1612026224       -0.0503370752        0.0015841071
 H         -3.6884897363        0.6678694942        0.0041240980
 H         -2.9487125141       -0.7086148051        0.8805346051
 H         -2.9532734050       -0.6965650367       -0.8944628101
 H          0.6242749190        1.5014670423        0.8908553373
 H          0.6260715353        1.5019086660       -0.8898004279
          11
        -21.65303329
 C         -2.4476698454       -0.8280123741        0.2316952166
 O         -1.1733965887       -0.6699738273       -0.3819712045
 C         -0.5615423268        0.4936733958       -0.1783507337
 O         -1.0239036362        1.4080993937        0.4452112390
 C          0.8098310558        0.5001049027       -0.8282899723
 Cl         1.9162118479       -0.3567447223        0.2787204525
 H         -3.1236726531       -0.0350963638       -0.0935996812
 H         -2.3510592117       -0.7855439929        1.3179684547
 H         -2.8156884416       -1.8010783596       -0.0817213263
 H          1.1740090900        1.5194200663       -0.9432983999
 H          0.8030796991       -0.0415748165       -1.7723310270
