 11

C     -0.357000    -0.135000     1.026000
O      0.739000    -0.447000     1.893000
C      1.413000    -1.600000     1.601000
O      1.154000    -2.362000     0.680000
C      2.522000    -1.768000     2.603000
Cl     3.429000    -3.253000     2.267000
H     -0.822000     0.800000     1.347000
H     -1.088000    -0.947000     1.055000
H      0.018000    -0.022000     0.006000
H      2.106000    -1.847000     3.610000
H      3.216000    -0.926000     2.534000
