  11
 
 C         -0.3570000000       -0.1350000000        1.0260000000
 O          0.7390000000       -0.4470000000        1.8930000000
 C          1.4130000000       -1.6000000000        1.6010000000
 O          1.1540000000       -2.3620000000        0.6800000000
 C          2.5220000000       -1.7680000000        2.6030000000
 Cl         3.4290000000       -3.2530000000        2.2670000000
 H         -0.8220000000        0.8000000000        1.3470000000
 H         -1.0880000000       -0.9470000000        1.0550000000
 H          0.0180000000       -0.0220000000        0.0060000000
 H          2.1060000000       -1.8470000000        3.6100000000
 H          3.2160000000       -0.9260000000        2.5340000000
