 xtb: 6.7.1 (edcfbbe)
          04112512403D

 18 17  0     0  0            999 V2000
   -2.5280    0.5937    0.1255 C   0  0  0  0  0  0  0  0  0  0  0  0
   -1.1628    0.7465   -0.5360 C   0  0  0  0  0  0  0  0  0  0  0  0
   -0.0451    0.0187    0.2172 C   0  0  0  0  0  0  0  0  0  0  0  0
   -0.0299    0.3820    1.2520 H   0  0  0  0  0  0  0  0  0  0  0  0
   -0.2467   -1.4950    0.2324 C   0  0  0  0  0  0  0  0  0  0  0  0
    1.3111    0.3517   -0.4222 C   0  0  0  0  0  0  0  0  0  0  0  0
    2.4099   -0.1740    0.2905 O   0  0  0  0  0  0  0  0  0  0  0  0
   -3.2671    1.1919   -0.4014 H   0  0  0  0  0  0  0  0  0  0  0  0
   -2.8551   -0.4420    0.1085 H   0  0  0  0  0  0  0  0  0  0  0  0
   -2.4898    0.9281    1.1598 H   0  0  0  0  0  0  0  0  0  0  0  0
   -0.9136    1.8092   -0.5904 H   0  0  0  0  0  0  0  0  0  0  0  0
   -1.2087    0.3667   -1.5588 H   0  0  0  0  0  0  0  0  0  0  0  0
    0.6534   -1.9807    0.6032 H   0  0  0  0  0  0  0  0  0  0  0  0
   -0.4400   -1.8589   -0.7744 H   0  0  0  0  0  0  0  0  0  0  0  0
   -1.0783   -1.7740    0.8726 H   0  0  0  0  0  0  0  0  0  0  0  0
    1.4178    1.4404   -0.5284 H   0  0  0  0  0  0  0  0  0  0  0  0
    1.3718   -0.0960   -1.4174 H   0  0  0  0  0  0  0  0  0  0  0  0
    2.4269    0.2191    1.1740 H   0  0  0  0  0  0  0  0  0  0  0  0
  1  2  1  0  0  0  0
  2  3  1  0  0  0  0
  3  4  1  0  0  0  0
  3  5  1  0  0  0  0
  3  6  1  0  0  0  0
  6  7  1  0  0  0  0
  1  8  1  0  0  0  0
  1  9  1  0  0  0  0
  1 10  1  0  0  0  0
  2 11  1  0  0  0  0
  2 12  1  0  0  0  0
  5 13  1  0  0  0  0
  5 14  1  0  0  0  0
  5 15  1  0  0  0  0
  6 16  1  0  0  0  0
  6 17  1  0  0  0  0
  7 18  1  0  0  0  0
M  END
