 xtb: 6.7.1 (edcfbbe)
          04112512013D

 22 22  0     0  0            999 V2000
    4.6683   -1.3292   -0.7288 C   0  0  0  0  0  0  0  0  0  0  0  0
    4.6040   -0.0788    0.1405 C   0  0  0  0  0  0  0  0  0  0  0  0
    3.2502    0.5789    0.3158 C   0  0  0  0  0  0  0  0  0  0  0  0
    3.1641    1.7291    0.7238 O   0  0  0  0  0  0  0  0  0  0  0  0
    2.1797   -0.2005    0.0135 N   0  0  0  0  0  0  0  0  0  0  0  0
    0.8243    0.1029    0.0838 C   0  0  0  0  0  0  0  0  0  0  0  0
    0.3358    1.3396    0.5030 C   0  0  0  0  0  0  0  0  0  0  0  0
   -1.0252    1.5703    0.5477 C   0  0  0  0  0  0  0  0  0  0  0  0
   -1.9196    0.5786    0.1777 C   0  0  0  0  0  0  0  0  0  0  0  0
   -1.4385   -0.6560   -0.2414 C   0  0  0  0  0  0  0  0  0  0  0  0
   -0.0785   -0.8950   -0.2893 C   0  0  0  0  0  0  0  0  0  0  0  0
   -2.5420   -1.9085   -0.7083 Cl  0  0  0  0  0  0  0  0  0  0  0  0
   -3.6279    0.8793    0.2385 Cl  0  0  0  0  0  0  0  0  0  0  0  0
    4.1748   -2.1755   -0.2570 H   0  0  0  0  0  0  0  0  0  0  0  0
    5.7102   -1.6026   -0.8738 H   0  0  0  0  0  0  0  0  0  0  0  0
    4.2324   -1.1480   -1.7081 H   0  0  0  0  0  0  0  0  0  0  0  0
    5.2651    0.6935   -0.2578 H   0  0  0  0  0  0  0  0  0  0  0  0
    4.9660   -0.3047    1.1472 H   0  0  0  0  0  0  0  0  0  0  0  0
    2.3836   -1.1371   -0.3119 H   0  0  0  0  0  0  0  0  0  0  0  0
    1.0259    2.1143    0.7920 H   0  0  0  0  0  0  0  0  0  0  0  0
   -1.4015    2.5263    0.8718 H   0  0  0  0  0  0  0  0  0  0  0  0
    0.2703   -1.8604   -0.6183 H   0  0  0  0  0  0  0  0  0  0  0  0
  1  2  1  0  0  0  0
  2  3  1  0  0  0  0
  3  4  2  0  0  0  0
  3  5  4  0  0  0  0
  5  6  1  0  0  0  0
  6  7  4  0  0  0  0
  7  8  4  0  0  0  0
  8  9  4  0  0  0  0
  9 10  4  0  0  0  0
  6 11  4  0  0  0  0
 10 11  4  0  0  0  0
 10 12  1  0  0  0  0
  9 13  1  0  0  0  0
  1 14  1  0  0  0  0
  1 15  1  0  0  0  0
  1 16  1  0  0  0  0
  2 17  1  0  0  0  0
  2 18  1  0  0  0  0
  5 19  1  0  0  0  0
  7 20  1  0  0  0  0
  8 21  1  0  0  0  0
 11 22  1  0  0  0  0
M  END
