 xtb: 6.7.1 (edcfbbe)
          04112511493D

 21 20  0     0  0            999 V2000
    1.7332   -1.1873   -0.1151 C   0  0  0  0  0  0  0  0  0  0  0  0
    1.2390    0.1340    0.4702 C   0  0  0  0  0  0  0  0  0  0  0  0
    1.0815    0.0172    1.5492 H   0  0  0  0  0  0  0  0  0  0  0  0
   -0.0632    0.6283   -0.1764 C   0  0  0  0  0  0  0  0  0  0  0  0
   -1.2923   -0.2492    0.1203 C   0  0  0  0  0  0  0  0  0  0  0  0
   -2.5065    0.6220    0.4433 C   0  0  0  0  0  0  0  0  0  0  0  0
   -1.6234   -1.1687   -1.0547 C   0  0  0  0  0  0  0  0  0  0  0  0
    2.2442    1.1334    0.3794 O   0  0  0  0  0  0  0  0  0  0  0  0
    1.8207   -1.1150   -1.1973 H   0  0  0  0  0  0  0  0  0  0  0  0
    2.7099   -1.4251    0.3005 H   0  0  0  0  0  0  0  0  0  0  0  0
    1.0468   -1.9902    0.1332 H   0  0  0  0  0  0  0  0  0  0  0  0
   -0.2364    1.6374    0.2045 H   0  0  0  0  0  0  0  0  0  0  0  0
    0.0823    0.7053   -1.2563 H   0  0  0  0  0  0  0  0  0  0  0  0
   -1.0763   -0.8672    0.9987 H   0  0  0  0  0  0  0  0  0  0  0  0
   -3.3760    0.0015    0.6478 H   0  0  0  0  0  0  0  0  0  0  0  0
   -2.7392    1.2723   -0.3972 H   0  0  0  0  0  0  0  0  0  0  0  0
   -2.3146    1.2407    1.3168 H   0  0  0  0  0  0  0  0  0  0  0  0
   -0.7754   -1.7940   -1.3175 H   0  0  0  0  0  0  0  0  0  0  0  0
   -2.4604   -1.8160   -0.8028 H   0  0  0  0  0  0  0  0  0  0  0  0
   -1.9000   -0.5782   -1.9256 H   0  0  0  0  0  0  0  0  0  0  0  0
    2.4612    1.2686   -0.5539 H   0  0  0  0  0  0  0  0  0  0  0  0
  1  2  1  0  0  0  0
  2  3  1  0  0  0  0
  2  4  1  0  0  0  0
  4  5  1  0  0  0  0
  5  6  1  0  0  0  0
  5  7  1  0  0  0  0
  2  8  1  0  0  0  0
  1  9  1  0  0  0  0
  1 10  1  0  0  0  0
  1 11  1  0  0  0  0
  4 12  1  0  0  0  0
  4 13  1  0  0  0  0
  5 14  1  0  0  0  0
  6 15  1  0  0  0  0
  6 16  1  0  0  0  0
  6 17  1  0  0  0  0
  7 18  1  0  0  0  0
  7 19  1  0  0  0  0
  7 20  1  0  0  0  0
  8 21  1  0  0  0  0
M  END
