 xtb: 6.7.1 (edcfbbe)
          04112511493D

 21 20  0     0  0            999 V2000
    1.6052    0.6415    1.2657 C   0  0  0  0  0  0  0  0  0  0  0  0
    1.2021    0.3925   -0.1862 C   0  0  0  0  0  0  0  0  0  0  0  0
    0.9305    1.3502   -0.6571 H   0  0  0  0  0  0  0  0  0  0  0  0
    0.0340   -0.5906   -0.3160 C   0  0  0  0  0  0  0  0  0  0  0  0
   -1.2835   -0.1647    0.3378 C   0  0  0  0  0  0  0  0  0  0  0  0
   -1.8193    1.1408   -0.2463 C   0  0  0  0  0  0  0  0  0  0  0  0
   -2.3149   -1.2778    0.1535 C   0  0  0  0  0  0  0  0  0  0  0  0
    2.2728   -0.1846   -0.9243 O   0  0  0  0  0  0  0  0  0  0  0  0
    0.7954    1.1241    1.8034 H   0  0  0  0  0  0  0  0  0  0  0  0
    1.8439   -0.3017    1.7511 H   0  0  0  0  0  0  0  0  0  0  0  0
    2.4786    1.2889    1.3102 H   0  0  0  0  0  0  0  0  0  0  0  0
   -0.1299   -0.7581   -1.3832 H   0  0  0  0  0  0  0  0  0  0  0  0
    0.3608   -1.5405    0.1135 H   0  0  0  0  0  0  0  0  0  0  0  0
   -1.1200   -0.0285    1.4114 H   0  0  0  0  0  0  0  0  0  0  0  0
   -2.7993    1.3620    0.1702 H   0  0  0  0  0  0  0  0  0  0  0  0
   -1.9157    1.0593   -1.3266 H   0  0  0  0  0  0  0  0  0  0  0  0
   -1.1599    1.9742   -0.0196 H   0  0  0  0  0  0  0  0  0  0  0  0
   -1.9527   -2.2114    0.5768 H   0  0  0  0  0  0  0  0  0  0  0  0
   -3.2489   -1.0168    0.6451 H   0  0  0  0  0  0  0  0  0  0  0  0
   -2.5152   -1.4358   -0.9039 H   0  0  0  0  0  0  0  0  0  0  0  0
    3.0564    0.3748   -0.8378 H   0  0  0  0  0  0  0  0  0  0  0  0
  1  2  1  0  0  0  0
  2  3  1  0  0  0  0
  2  4  1  0  0  0  0
  4  5  1  0  0  0  0
  5  6  1  0  0  0  0
  5  7  1  0  0  0  0
  2  8  1  0  0  0  0
  1  9  1  0  0  0  0
  1 10  1  0  0  0  0
  1 11  1  0  0  0  0
  4 12  1  0  0  0  0
  4 13  1  0  0  0  0
  5 14  1  0  0  0  0
  6 15  1  0  0  0  0
  6 16  1  0  0  0  0
  6 17  1  0  0  0  0
  7 18  1  0  0  0  0
  7 19  1  0  0  0  0
  7 20  1  0  0  0  0
  8 21  1  0  0  0  0
M  END
