  27
 
 C          3.6835206117       -0.3529916421        0.1104276163
 C          2.2016198241       -0.2211908096       -0.0103098999
 C          1.5734178335        0.9543870292        0.0923794110
 C          0.1290992023        1.1316703003       -0.0681888113
 O         -0.3923654834        2.2237679258        0.0233215928
 C         -0.6571383497       -0.1272865658       -0.4148625308
 H         -0.5587694951       -0.2312788448       -1.5058264016
 C         -0.0025683237       -1.3467864828        0.2327089404
 C          1.4343306125       -1.4834821385       -0.2591421579
 C         -2.1527958385        0.0543710566       -0.1007685211
 C         -3.0092469155       -1.0050625150       -0.7898250323
 C         -2.4281220989        0.0723084404        1.4010718822
 H          4.0873509838       -0.8534074419       -0.7694995839
 H          3.9342474805       -0.9642088488        0.9778804422
 H          4.1602814199        0.6175516726        0.2164710661
 H          2.1260505691        1.8636728205        0.2860889862
 H          0.0049365275       -1.2279446640        1.3175124027
 H         -0.5654789691       -2.2490412805       -0.0103016841
 H          1.9307569228       -2.3235952621        0.2319679570
 H          1.4368853037       -1.6885491867       -1.3358029251
 H         -2.4295904407        1.0358452765       -0.5013569461
 H         -4.0636104309       -0.7858322323       -0.6389225804
 H         -2.8108508803       -1.9943220704       -0.3827811353
 H         -2.8159152137       -1.0259031450       -1.8605491211
 H         -3.4665856684        0.3401148858        1.5824375635
 H         -1.7974367095        0.8090717902        1.8923512174
 H         -2.2480884086       -0.9034960827        1.8469129256
          27
        -33.63685159
 C          3.6885455981       -0.2851887374        0.1418562142
 C          2.2058290370       -0.1839924694        0.0038511911
 C          1.5650732650        0.9886859091       -0.0355696955
 C          0.1193196502        1.1309360054       -0.2161895639
 O         -0.4147241735        2.2202954110       -0.2467712459
 C         -0.6496815084       -0.1682699960       -0.4261206981
 H         -0.5356775464       -0.3960039179       -1.4963630241
 C          0.0098451665       -1.2952106100        0.3672014990
 C          1.4528187258       -1.4753435789       -0.0917801224
 C         -2.1513408247        0.0288010409       -0.1521184462
 C         -2.9877387868       -1.0953683276       -0.7579140008
 C         -2.4501594701        0.1763000661        1.3379807789
 H          4.1576804388        0.6940816137        0.1072159723
 H          4.0971411958       -0.9043302516       -0.6561996631
 H          3.9428646369       -0.7623687866        1.0884128490
 H          2.1088156171        1.9198574452        0.0485233609
 H          0.0055248343       -1.0472994456        1.4299849574
 H         -0.5423325486       -2.2259074590        0.2294793184
 H          1.9524806147       -2.2421472861        0.5047867940
 H          1.4686062215       -1.8135453008       -1.1342912087
 H         -2.4289427075        0.9684737731       -0.6422019644
 H         -4.0462101246       -0.8851638772       -0.6235709297
 H         -2.7711712906       -2.0470368079       -0.2771242143
 H         -2.7930732571       -1.1939921297       -1.8238421634
 H         -3.4901962379        0.4612672297        1.4794830019
 H         -1.8243540009        0.9504812256        1.7750413025
 H         -2.2812331448       -0.7586567974        1.8677792406
