  27
 
 C          0.4170000000       -2.4710000000        1.7860000000
 C          0.1350000000       -1.2850000000        0.9100000000
 C          1.1310000000       -0.5500000000        0.3920000000
 C          0.8420000000        0.5830000000       -0.5260000000
 O          1.7750000000        1.2730000000       -0.9350000000
 C         -0.5970000000        0.7850000000       -0.9840000000
 H         -0.7640000000        0.1050000000       -1.8300000000
 C         -1.5540000000        0.4360000000        0.1550000000
 C         -1.3210000000       -0.9870000000        0.6590000000
 C         -0.8280000000        2.2170000000       -1.4580000000
 C         -2.0650000000        2.2950000000       -2.3510000000
 C         -0.9670000000        3.1620000000       -0.2670000000
 H          0.5060000000       -3.3770000000        1.1810000000
 H         -0.3920000000       -2.6100000000        2.5090000000
 H          1.3490000000       -2.3230000000        2.3370000000
 H          2.1730000000       -0.7670000000        0.5970000000
 H         -1.4130000000        1.1380000000        0.9880000000
 H         -2.5950000000        0.5380000000       -0.1750000000
 H         -1.8940000000       -1.1210000000        1.5840000000
 H         -1.7090000000       -1.7090000000       -0.0690000000
 H          0.0420000000        2.5310000000       -2.0480000000
 H         -2.2420000000        3.3180000000       -2.6980000000
 H         -2.9570000000        1.9620000000       -1.8090000000
 H         -1.9500000000        1.6540000000       -3.2320000000
 H         -1.1330000000        4.1940000000       -0.5940000000
 H         -0.0620000000        3.1450000000        0.3510000000
 H         -1.8100000000        2.8680000000        0.3660000000
