 19

C      1.885000    -1.036000    -0.112000
C      2.921000    -1.631000     0.608000
C      2.878000    -1.652000     2.002000
C      1.800000    -1.079000     2.676000
C      0.764000    -0.484000     1.955000
C      0.807000    -0.463000     0.561000
C      1.755000    -1.101000     4.166000
C      1.057000    -2.342000     4.729000
O      1.746000    -3.511000     4.304000
H      1.918000    -1.021000    -1.198000
H      3.760000    -2.078000     0.084000
H      3.690000    -2.117000     2.555000
H     -0.080000    -0.035000     2.471000
H     -0.001000    -0.001000     0.000000
H      2.775000    -1.044000     4.576000
H      1.228000    -0.207000     4.533000
H      1.077000    -2.321000     5.823000
H      0.016000    -2.405000     4.396000
H      1.271000    -4.268000     4.683000
