21
 xtb: 6.7.1 (edcfbbe)
C           -2.29598592024031       -0.12792425412647       -1.04468104322843
C           -1.77884704537939        0.64520057868775        0.16736032454710
C           -0.57739842008316        0.03748231024700        0.90333460554244
C            0.76070950233784       -0.08937865721674        0.14891690394448
C            1.10550535177414        1.18258152448997       -0.61885149902044
C            0.82599282757290       -1.31249687590798       -0.75647088741179
O            1.80004716529663       -0.33536858867059        1.14634691762327
H           -3.25859887930656        0.27848119452250       -1.37281985044861
H           -2.44440631770307       -1.18751988448214       -0.80635280192737
H           -1.61247358382746       -0.06621666384553       -1.89613106283542
H           -1.54553763819529        1.67509685764346       -0.12848250068113
H           -2.58999383786663        0.72116263009192        0.90172244167753
H           -0.38292499808441        0.67203397186422        1.77877227922942
H           -0.84639199052141       -0.95520455322068        1.28837348420693
H            2.10963649942681        1.10072922182682       -1.04651250873444
H            1.07753297214527        2.05522883731831        0.04356517065064
H            0.39868102526321        1.35108816944014       -1.43688110306674
H            0.11235547093729       -1.23513318597203       -1.57758568072336
H            0.60272962576832       -2.22140556031870       -0.18834731822893
H            1.82952828229405       -1.40635998060025       -1.18476183301598
H            1.81046861311978        0.42818744795485        1.73951797456748
