 xtb: 6.7.1 (edcfbbe)
          04112512143D

 21 20  0     0  0            999 V2000
    1.5074    0.1510   -1.2018 C   0  0  0  0  0  0  0  0  0  0  0  0
    1.1222   -0.2380    0.2228 C   0  0  0  0  0  0  0  0  0  0  0  0
    0.9652   -1.3265    0.2720 H   0  0  0  0  0  0  0  0  0  0  0  0
   -0.1216    0.4814    0.7601 C   0  0  0  0  0  0  0  0  0  0  0  0
   -1.4985    0.1167    0.1811 C   0  0  0  0  0  0  0  0  0  0  0  0
   -1.8080    0.8224   -1.1389 C   0  0  0  0  0  0  0  0  0  0  0  0
   -1.7002   -1.3910    0.0429 C   0  0  0  0  0  0  0  0  0  0  0  0
    2.1616    0.1039    1.1366 O   0  0  0  0  0  0  0  0  0  0  0  0
    2.4810   -0.2667   -1.4526 H   0  0  0  0  0  0  0  0  0  0  0  0
    0.7834   -0.2361   -1.9103 H   0  0  0  0  0  0  0  0  0  0  0  0
    1.5580    1.2328   -1.2957 H   0  0  0  0  0  0  0  0  0  0  0  0
   -0.1341    0.2698    1.8327 H   0  0  0  0  0  0  0  0  0  0  0  0
    0.0422    1.5557    0.6513 H   0  0  0  0  0  0  0  0  0  0  0  0
   -2.2281    0.4825    0.9139 H   0  0  0  0  0  0  0  0  0  0  0  0
   -1.6251    1.8906   -1.0536 H   0  0  0  0  0  0  0  0  0  0  0  0
   -2.8545    0.6750   -1.3972 H   0  0  0  0  0  0  0  0  0  0  0  0
   -1.2046    0.4328   -1.9524 H   0  0  0  0  0  0  0  0  0  0  0  0
   -1.0792   -1.7954   -0.7525 H   0  0  0  0  0  0  0  0  0  0  0  0
   -1.4515   -1.8976    0.9723 H   0  0  0  0  0  0  0  0  0  0  0  0
   -2.7389   -1.6058   -0.1974 H   0  0  0  0  0  0  0  0  0  0  0  0
    2.9939   -0.2802    0.8297 H   0  0  0  0  0  0  0  0  0  0  0  0
  1  2  1  0  0  0  0
  2  3  1  0  0  0  0
  2  4  1  0  0  0  0
  4  5  1  0  0  0  0
  5  6  1  0  0  0  0
  5  7  1  0  0  0  0
  2  8  1  0  0  0  0
  1  9  1  0  0  0  0
  1 10  1  0  0  0  0
  1 11  1  0  0  0  0
  4 12  1  0  0  0  0
  4 13  1  0  0  0  0
  5 14  1  0  0  0  0
  6 15  1  0  0  0  0
  6 16  1  0  0  0  0
  6 17  1  0  0  0  0
  7 18  1  0  0  0  0
  7 19  1  0  0  0  0
  7 20  1  0  0  0  0
  8 21  1  0  0  0  0
M  END
