 12

C      1.885000    -1.036000    -0.112000
C      2.921000    -1.631000     0.608000
C      2.878000    -1.652000     2.002000
C      1.800000    -1.079000     2.676000
C      0.764000    -0.484000     1.955000
C      0.807000    -0.463000     0.561000
H      1.917000    -1.020000    -1.198000
H      3.761000    -2.077000     0.084000
H      3.685000    -2.115000     2.563000
H      1.766000    -1.095000     3.761000
H     -0.076000    -0.038000     2.479000
H      0.000000     0.000000    -0.000000
