 xtb: 6.7.1 (edcfbbe)
          04112511553D

 20 19  0     0  0            999 V2000
    0.0478   -2.5841    0.0486 C   0  0  0  0  0  0  0  0  0  0  0  0
   -0.0622   -1.0966   -0.2215 C   0  0  0  0  0  0  0  0  0  0  0  0
    0.8514   -0.3702    0.5908 O   0  0  0  0  0  0  0  0  0  0  0  0
    1.8048    0.3695   -0.0009 C   0  0  0  0  0  0  0  0  0  0  0  0
    2.0147    0.3434   -1.1908 O   0  0  0  0  0  0  0  0  0  0  0  0
    2.5503    1.1867    1.0017 C   0  0  0  0  0  0  0  0  0  0  0  0
   -1.3731   -0.6866    0.1286 O   0  0  0  0  0  0  0  0  0  0  0  0
   -1.7293    0.5890   -0.0999 C   0  0  0  0  0  0  0  0  0  0  0  0
   -0.9826    1.3982   -0.6026 O   0  0  0  0  0  0  0  0  0  0  0  0
   -3.1264    0.8482    0.3564 C   0  0  0  0  0  0  0  0  0  0  0  0
    1.0354   -2.9295   -0.2391 H   0  0  0  0  0  0  0  0  0  0  0  0
   -0.7079   -3.1053   -0.5289 H   0  0  0  0  0  0  0  0  0  0  0  0
   -0.1125   -2.7638    1.1073 H   0  0  0  0  0  0  0  0  0  0  0  0
    0.1373   -0.8381   -1.2734 H   0  0  0  0  0  0  0  0  0  0  0  0
    2.5247    0.7005    1.9711 H   0  0  0  0  0  0  0  0  0  0  0  0
    3.5676    1.3470    0.6594 H   0  0  0  0  0  0  0  0  0  0  0  0
    2.0517    2.1517    1.0769 H   0  0  0  0  0  0  0  0  0  0  0  0
   -3.5024    1.7513   -0.1127 H   0  0  0  0  0  0  0  0  0  0  0  0
   -3.7514   -0.0088    0.1270 H   0  0  0  0  0  0  0  0  0  0  0  0
   -3.1144    0.9826    1.4361 H   0  0  0  0  0  0  0  0  0  0  0  0
  1  2  1  0  0  0  0
  2  3  1  0  0  0  0
  3  4  1  0  0  0  0
  4  5  2  0  0  0  0
  4  6  1  0  0  0  0
  2  7  1  0  0  0  0
  7  8  1  0  0  0  0
  8  9  2  0  0  0  0
  8 10  1  0  0  0  0
  1 11  1  0  0  0  0
  1 12  1  0  0  0  0
  1 13  1  0  0  0  0
  2 14  1  0  0  0  0
  6 15  1  0  0  0  0
  6 16  1  0  0  0  0
  6 17  1  0  0  0  0
 10 18  1  0  0  0  0
 10 19  1  0  0  0  0
 10 20  1  0  0  0  0
M  END
