21
CONF2
C -3.2790815622 1.3041607684 0.8178742105
O -2.4136555168 1.3277113889 -0.3520370066
C -1.2433739127 0.6297331190 -0.1719543490
C -1.1315123764 -0.7402300616 -0.4010605433
C 0.0743665410 -1.4110187643 -0.2420025089
C 1.1878940635 -0.6763530510 0.1462442560
C 1.1270725036 0.6977905117 0.3784333161
C -0.1029021103 1.3464202882 0.2131117789
O -0.1586417897 2.6851835164 0.4382627437
O 2.2186822152 1.4124528857 0.8009093784
C 2.9382753644 2.0422325703 -0.2910548179
Cl 2.7187881343 -1.4978592172 0.3499021308
Cl -2.5435104608 -1.6338300857 -0.9197102674
H -4.1566995426 1.8954924365 0.5541135483
H -2.7664990129 1.7517934489 1.6757627897
H -3.5764050008 0.2777832236 1.0528957754
H 0.1458485704 -2.4760884711 -0.4225464234
H -1.0586952752 2.9866902315 0.2299817492
H 3.3153988469 1.2837437967 -0.9841583442
H 3.7724716244 2.5768518891 0.1641449658
H 2.2895588698 2.7451835310 -0.8221335933
21
CONF1
C -3.0191614368 1.8808863807 -0.1584801913
O -2.2193017173 1.2526330257 0.8767690193
C -1.1146884084 0.6085731809 0.3809762554
C -1.1210894485 -0.7573533921 0.0966761065
C 0.0076591963 -1.4221668199 -0.3668032711
C 1.1731224202 -0.6882858845 -0.5483523129
C 1.2300343491 0.6755268031 -0.2698803137
C 0.0750278760 1.3214595839 0.1900053920
O 0.0810446456 2.6522995720 0.4631383860
O 2.3551657134 1.4386306557 -0.4716898749
C 3.2713316034 1.4196116026 0.6590825442
Cl 2.6020635261 -1.4912322852 -1.1600580045
Cl -2.6020981732 -1.6587018499 0.3315902151
H -2.4401343751 2.6531015603 -0.6734444775
H -3.8722227133 2.3316177113 0.3498892675
H -3.3666594161 1.1317247699 -0.8768890153
H -0.0216898961 -2.4818641000 -0.5866585078
H 0.9572905987 2.9994603745 0.2256202847
H 4.0932640059 2.0840734637 0.3905110059
H 3.6489082175 0.4068675914 0.8284932704
H 2.7679137755 1.7879209394 1.5590618727
21
CONF4
C -3.1765399286 1.2738273404 -0.5874710123
O -2.3907136299 1.0904851837 0.6236154136
C -1.2141211621 0.4130794332 0.4624077836
C -1.1436487680 -0.9772651539 0.3623686301
C 0.0658228457 -1.6529476679 0.2581004251
C 1.2364256976 -0.9056275051 0.2471290051
C 1.2172607248 0.4850494822 0.3332824523
C -0.0166154856 1.1396352395 0.4400927446
O -0.0856587563 2.4947589740 0.5289322740
O 2.3585008608 1.2511429855 0.3585949479
C 2.8591501184 1.5777940181 -0.9685381823
Cl 2.7759805591 -1.7309011332 0.1462102812
Cl -2.6310065526 -1.8976544430 0.3925072199
H -3.4083659623 2.3385196839 -0.6715356638
H -4.1013737712 0.6971834961 -0.5059758748
H -2.6130683698 0.9499867144 -1.4662984884
H 0.0949541233 -2.7333152651 0.1946880611
H 0.8229780751 2.8380117701 0.5555813030
H 2.1082699038 2.1484415903 -1.5250019114
H 3.1179260790 0.6660803003 -1.5151116820
H 3.7514337961 2.1847896478 -0.8117102551
