21
 xtb: 6.7.1 (edcfbbe)
C            1.47121608709873        0.04109124495039       -1.17666028643665
C            1.13180717976349       -0.20425353066460        0.28433859273881
H            1.04029861645745       -1.28238610874680        0.45816387948737
C           -0.12499758780085        0.50631667129456        0.79178213287065
C           -1.48605515639868        0.14196654856586        0.16225229466633
C           -1.76762301274792        0.83610643375231       -1.17336054162301
C           -1.68778331338484       -1.37012705711755        0.04779385853124
O            2.25284618581806        0.19189851340634        1.12118901304525
H            2.46191655638737       -0.36698740146396       -1.40120427665260
H            0.75137566902218       -0.44920946129568       -1.83720567597854
H            1.47410631195597        1.11396227379800       -1.40358197373207
H           -0.18402609729384        0.29153318303670        1.86634076344052
H            0.03610378527159        1.58986678300909        0.69335097478111
H           -2.23708054501890        0.51863399969970        0.87000462398362
H           -1.59622175847704        1.91577354990508       -1.10194361268987
H           -2.81277159979668        0.68130008229007       -1.46431792532964
H           -1.14429670075163        0.44809700647156       -1.98383070490047
H           -2.71586167817421       -1.59783077401229       -0.25414700477595
H           -1.01981684073572       -1.80601336509509       -0.70403310595321
H           -1.49795654803318       -1.87383954012691        1.00237038120367
H            2.36745611999128        1.14471847652316        0.99989076211353
