 xtb: 6.7.1 (edcfbbe)
          04112511313D

 18 17  0     0  0            999 V2000
    2.8345   -0.2823    0.1758 C   0  0  0  0  0  0  0  0  0  0  0  0
    1.5162    0.2918   -0.3308 C   0  0  0  0  0  0  0  0  0  0  0  0
    0.3205   -0.4821    0.2233 C   0  0  0  0  0  0  0  0  0  0  0  0
   -1.0277   -0.0049   -0.3332 C   0  0  0  0  0  0  0  0  0  0  0  0
   -0.9678    0.0344   -1.4340 H   0  0  0  0  0  0  0  0  0  0  0  0
   -2.1520   -0.9562    0.0670 C   0  0  0  0  0  0  0  0  0  0  0  0
   -1.3833    1.2800    0.1549 O   0  0  0  0  0  0  0  0  0  0  0  0
    2.9404   -1.3202   -0.1307 H   0  0  0  0  0  0  0  0  0  0  0  0
    2.8750   -0.2402    1.2618 H   0  0  0  0  0  0  0  0  0  0  0  0
    3.6741    0.2819   -0.2223 H   0  0  0  0  0  0  0  0  0  0  0  0
    1.4522    1.3408   -0.0336 H   0  0  0  0  0  0  0  0  0  0  0  0
    1.4984    0.2492   -1.4227 H   0  0  0  0  0  0  0  0  0  0  0  0
    0.4348   -1.5382   -0.0258 H   0  0  0  0  0  0  0  0  0  0  0  0
    0.2955   -0.3913    1.3114 H   0  0  0  0  0  0  0  0  0  0  0  0
   -3.1007   -0.5708   -0.2963 H   0  0  0  0  0  0  0  0  0  0  0  0
   -1.9795   -1.9418   -0.3535 H   0  0  0  0  0  0  0  0  0  0  0  0
   -2.2017   -1.0276    1.1501 H   0  0  0  0  0  0  0  0  0  0  0  0
   -0.7017    1.9168   -0.0949 H   0  0  0  0  0  0  0  0  0  0  0  0
  1  2  1  0  0  0  0
  2  3  1  0  0  0  0
  3  4  1  0  0  0  0
  4  5  1  0  0  0  0
  4  6  1  0  0  0  0
  4  7  1  0  0  0  0
  1  8  1  0  0  0  0
  1  9  1  0  0  0  0
  1 10  1  0  0  0  0
  2 11  1  0  0  0  0
  2 12  1  0  0  0  0
  3 13  1  0  0  0  0
  3 14  1  0  0  0  0
  6 15  1  0  0  0  0
  6 16  1  0  0  0  0
  6 17  1  0  0  0  0
  7 18  1  0  0  0  0
M  END
