 xtb: 6.7.1 (edcfbbe)
          04112511193D

 14 13  0     0  0            999 V2000
   -1.3644    0.1377    0.4992 C   0  0  0  0  0  0  0  0  0  0  0  0
    0.0741    0.6701    0.6231 C   0  0  0  0  0  0  0  0  0  0  0  0
    1.1125   -0.4597    0.7395 C   0  0  0  0  0  0  0  0  0  0  0  0
    1.2764   -1.0673   -0.5218 O   0  0  0  0  0  0  0  0  0  0  0  0
    0.3918    1.5348   -0.4387 O   0  0  0  0  0  0  0  0  0  0  0  0
   -1.4862   -0.6559   -0.6586 O   0  0  0  0  0  0  0  0  0  0  0  0
   -2.0356    1.0050    0.4442 H   0  0  0  0  0  0  0  0  0  0  0  0
   -1.6007   -0.4425    1.4007 H   0  0  0  0  0  0  0  0  0  0  0  0
    0.1232    1.2797    1.5320 H   0  0  0  0  0  0  0  0  0  0  0  0
    0.7682   -1.1818    1.4888 H   0  0  0  0  0  0  0  0  0  0  0  0
    2.0625   -0.0193    1.0716 H   0  0  0  0  0  0  0  0  0  0  0  0
    1.8699   -1.8245   -0.4395 H   0  0  0  0  0  0  0  0  0  0  0  0
    0.4410    0.9903   -1.2405 H   0  0  0  0  0  0  0  0  0  0  0  0
   -2.3980   -0.9641   -0.7421 H   0  0  0  0  0  0  0  0  0  0  0  0
  1  2  1  0  0  0  0
  2  3  1  0  0  0  0
  3  4  1  0  0  0  0
  2  5  1  0  0  0  0
  1  6  1  0  0  0  0
  1  7  1  0  0  0  0
  1  8  1  0  0  0  0
  2  9  1  0  0  0  0
  3 10  1  0  0  0  0
  3 11  1  0  0  0  0
  4 12  1  0  0  0  0
  5 13  1  0  0  0  0
  6 14  1  0  0  0  0
M  END
