 xtb: 6.7.1 (edcfbbe)
          04112511413D

 14 13  0     0  0            999 V2000
   -1.4451    0.0811    0.6259 C   0  0  0  0  0  0  0  0  0  0  0  0
    0.0610    0.3494    0.5156 C   0  0  0  0  0  0  0  0  0  0  0  0
    0.7963   -0.8841   -0.0232 C   0  0  0  0  0  0  0  0  0  0  0  0
    2.1920   -0.7153   -0.0025 O   0  0  0  0  0  0  0  0  0  0  0  0
    0.3671    1.4136   -0.3604 O   0  0  0  0  0  0  0  0  0  0  0  0
   -1.9439   -0.3413   -0.6231 O   0  0  0  0  0  0  0  0  0  0  0  0
   -1.9495    1.0025    0.9490 H   0  0  0  0  0  0  0  0  0  0  0  0
   -1.5980   -0.6913    1.3899 H   0  0  0  0  0  0  0  0  0  0  0  0
    0.4430    0.5775    1.5240 H   0  0  0  0  0  0  0  0  0  0  0  0
    0.4399   -1.0773   -1.0420 H   0  0  0  0  0  0  0  0  0  0  0  0
    0.5814   -1.7492    0.6057 H   0  0  0  0  0  0  0  0  0  0  0  0
    2.3993    0.0904   -0.4990 H   0  0  0  0  0  0  0  0  0  0  0  0
   -0.1487    2.1956   -0.1222 H   0  0  0  0  0  0  0  0  0  0  0  0
   -2.8900   -0.5249   -0.5459 H   0  0  0  0  0  0  0  0  0  0  0  0
  1  2  1  0  0  0  0
  2  3  1  0  0  0  0
  3  4  1  0  0  0  0
  2  5  1  0  0  0  0
  1  6  1  0  0  0  0
  1  7  1  0  0  0  0
  1  8  1  0  0  0  0
  2  9  1  0  0  0  0
  3 10  1  0  0  0  0
  3 11  1  0  0  0  0
  4 12  1  0  0  0  0
  5 13  1  0  0  0  0
  6 14  1  0  0  0  0
M  END
