  26
 
 C          3.4438055669        0.6916995882        0.6063565199
 C          3.4438682746       -0.6921703506        0.6056921138
 C          2.3361180383       -1.3836618034        0.1466152130
 C          1.2288205136       -0.6967333072       -0.3231649315
 C          1.2288328105        0.6967931518       -0.3229679795
 C          2.3361608601        1.3834670751        0.1472424727
 C         -0.0000026912        1.3992554917       -0.8273179218
 C         -1.2289360761        0.6969340822       -0.3229623767
 C         -2.3362535674        1.3837552059        0.1471654013
 C         -3.4440092704        0.6921453460        0.6061244720
 C         -3.4440030125       -0.6917191840        0.6059741776
 C         -2.3363032392       -1.3833729691        0.1467608260
 C         -1.2289960985       -0.6965982791       -0.3231451638
 C         -0.0001442840       -1.3988134732       -0.8277817722
 H          4.3051239098        1.2333527285        0.9684098633
 H          4.3051529469       -1.2340374007        0.9679856591
 H          2.3327535212       -2.4646656474        0.1521358987
 H          2.3329290983        2.4644699553        0.1532458528
 H          0.0001104663        2.4494379012       -0.5308051634
 H         -0.0000066599        1.3608513170       -1.9246778007
 H         -2.3329451822        2.4647576387        0.1528829693
 H         -4.3053561716        1.2339193153        0.9680447050
 H         -4.3053106425       -1.2334782534        0.9680539149
 H         -2.3330361878       -2.4643771249        0.1525305185
 H         -0.0002543047       -2.4489977853       -0.5319041020
 H         -0.0001746297       -1.3597257176       -1.9249695151
          26
        -36.10014585
 C          3.4440219513        0.6917135194       -0.6045599004
 C          3.4435861455       -0.6920940751       -0.6053837839
 C          2.3356176201       -1.3837030373       -0.1457744931
 C          1.2287021688       -0.6968257680        0.3249807613
 C          1.2289386433        0.6967433168        0.3252805339
 C          2.3363260695        1.3834830626       -0.1446023517
 C          0.0000626507        1.3986921130        0.8307828735
 C         -1.2287604472        0.6968761351        0.3249515856
 C         -2.3356939349        1.3836591296       -0.1457548477
 C         -3.4435609626        0.6919890545       -0.6053782350
 C         -3.4438806617       -0.6918091026       -0.6046714286
 C         -2.3362603228       -1.3835143467       -0.1446429242
 C         -1.2289948473       -0.6967141545        0.3253938309
 C         -0.0000880730       -1.3985230444        0.8310917868
 H          4.3053435233        1.2334875378       -0.9666564357
 H          4.3045440465       -1.2340321224       -0.9683342484
 H          2.3323611503       -2.4647000652       -0.1519268322
 H          2.3336090820        2.4644856776       -0.1498501989
 H         -0.0001440419        1.3577738143        1.9278426526
 H          0.0001915515        2.4491562385        0.5362740343
 H         -2.3325985268        2.4646514746       -0.1516731903
 H         -4.3047460648        1.2339232737       -0.9679460762
 H         -4.3052488869       -1.2336632149       -0.9666271586
 H         -2.3334996857       -2.4645101888       -0.1500190883
 H          0.0001603155       -1.3571163281        1.9281625631
 H         -0.0001631291       -2.4491319870        0.5370098208
