  26
 
 C          2.0530000000       -0.1060000000       -0.6360000000
 C          0.7020000000        0.1770000000       -0.8100000000
 C          0.2470000000        0.6820000000       -2.0280000000
 C          1.1430000000        0.9190000000       -3.0810000000
 C          2.5060000000        0.6330000000       -2.9060000000
 C          2.9500000000        0.1150000000       -1.6800000000
 C          3.4950000000        0.8290000000       -4.0270000000
 C          3.0240000000        1.7330000000       -5.1390000000
 C          3.9610000000        2.2620000000       -6.0390000000
 C          3.5500000000        3.0750000000       -7.0950000000
 C          2.1990000000        3.3580000000       -7.2690000000
 C          1.2580000000        2.8290000000       -6.3870000000
 C          1.6610000000        2.0190000000       -5.3140000000
 C          0.6170000000        1.4310000000       -4.3980000000
 H          2.4080000000       -0.5050000000        0.3100000000
 H          0.0000000000        0.0000000000        0.0000000000
 H         -0.8130000000        0.8880000000       -2.1540000000
 H          4.0020000000       -0.1210000000       -1.5340000000
 H          4.4140000000        1.2550000000       -3.6050000000
 H          3.7350000000       -0.1520000000       -4.4550000000
 H          5.0190000000        2.0390000000       -5.9220000000
 H          4.2850000000        3.4820000000       -7.7850000000
 H          1.8770000000        3.9870000000       -8.0940000000
 H          0.2040000000        3.0490000000       -6.5410000000
 H         -0.1330000000        2.2060000000       -4.1910000000
 H          0.1230000000        0.6030000000       -4.9210000000
