18
 xtb: 6.7.1 (edcfbbe)
C            1.73822444742490       -1.42967561063591       -0.14422353165450
C            1.05450718118251       -0.12819787024652        0.27556634249523
C            1.98653705867296        1.06674746786043        0.07408936530700
C           -0.28889668800605        0.06719056355377       -0.46971332012304
C           -1.46417566244897        0.10606965777939        0.49327033793109
O           -2.73222143063861        0.24092745281936       -0.17896027112601
H            1.08435548083847       -2.29234664961934        0.02419771342018
H            2.66367949527881       -1.59097240732167        0.41945734042493
H            1.99227030372469       -1.40314151399919       -1.21075508205020
H            0.83664934076744       -0.20000142081322        1.35133317855756
H            2.91697527145840        0.94240378936289        0.63901885209408
H            1.51272831928049        1.99822072349671        0.40277251220324
H            2.24678259826015        1.17684485026943       -0.98555202631173
H           -0.45037722164994       -0.74491706895024       -1.18898113495252
H           -0.27357552282824        1.00315358389974       -1.04353706608210
H           -1.52578387186202       -0.83199790115954        1.05577891141863
H           -1.33330314001028        0.92431534672942        1.21717559630701
H           -2.70069009045943        1.06546703535782       -0.68142607408950
