 xtb: 6.7.1 (edcfbbe)
          04112511193D

 14 13  0     0  0            999 V2000
   -1.1789    0.1403   -0.4965 C   0  0  0  0  0  0  0  0  0  0  0  0
   -0.0507    0.4961    0.4887 C   0  0  0  0  0  0  0  0  0  0  0  0
    0.9559   -0.6601    0.5914 C   0  0  0  0  0  0  0  0  0  0  0  0
    1.6560   -0.8537   -0.6117 O   0  0  0  0  0  0  0  0  0  0  0  0
    0.6748    1.6328    0.0689 O   0  0  0  0  0  0  0  0  0  0  0  0
   -2.0450   -0.8426    0.0146 O   0  0  0  0  0  0  0  0  0  0  0  0
   -0.7390   -0.2849   -1.4019 H   0  0  0  0  0  0  0  0  0  0  0  0
   -1.7365    1.0467   -0.7687 H   0  0  0  0  0  0  0  0  0  0  0  0
   -0.4801    0.6659    1.4885 H   0  0  0  0  0  0  0  0  0  0  0  0
    0.4196   -1.5886    0.7948 H   0  0  0  0  0  0  0  0  0  0  0  0
    1.6563   -0.4545    1.4116 H   0  0  0  0  0  0  0  0  0  0  0  0
    2.0430   -0.0009   -0.8630 H   0  0  0  0  0  0  0  0  0  0  0  0
    0.0847    2.3944   -0.0088 H   0  0  0  0  0  0  0  0  0  0  0  0
   -2.5235   -0.4895    0.7783 H   0  0  0  0  0  0  0  0  0  0  0  0
  1  2  1  0  0  0  0
  2  3  1  0  0  0  0
  3  4  1  0  0  0  0
  2  5  1  0  0  0  0
  1  6  1  0  0  0  0
  1  7  1  0  0  0  0
  1  8  1  0  0  0  0
  2  9  1  0  0  0  0
  3 10  1  0  0  0  0
  3 11  1  0  0  0  0
  4 12  1  0  0  0  0
  5 13  1  0  0  0  0
  6 14  1  0  0  0  0
M  END
