18
 xtb: 6.7.1 (edcfbbe)
C           -1.56023235741400        1.52238376976084        0.24621604059028
C           -1.15127248108123        0.24778896497792       -0.49330019511816
C           -0.13472065789969       -0.63843136253244        0.25369301925624
H           -0.28796707158908       -0.51328490303650        1.33535766690431
C           -0.33532989912075       -2.11459239959445       -0.10041748718023
C            1.31538566461989       -0.27659810935462       -0.06410572934765
O            1.68502508096477        1.07720687084216        0.26343272742045
H           -2.28869252514189        2.09466957389167       -0.33803666189773
H           -2.02521532442540        1.27500605569817        1.20712037530377
H           -0.71098362095657        2.18002475219319        0.45266511554751
H           -0.74771573400349        0.49772619435937       -1.48517558152537
H           -2.05703754944301       -0.34328788232919       -0.67609318607613
H            0.40088854242843       -2.75286139881614        0.40055017525709
H           -0.23495563514776       -2.26801935336874       -1.18170408910824
H           -1.33326927422132       -2.45278521218572        0.19448057635703
H            1.51057899374564       -0.46683155615165       -1.13067649515196
H            1.98894891995975       -0.91343281602040        0.51935495513773
H            1.25563906323830        1.65903287345538       -0.37579469141181
