 xtb: 6.7.1 (edcfbbe)
          04112512193D

 17 16  0     0  0            999 V2000
   -2.1636    0.9705    0.8744 C   0  0  0  0  0  0  0  0  0  0  0  0
   -1.9152   -0.0628   -0.2197 C   0  0  0  0  0  0  0  0  0  0  0  0
   -0.4594   -0.4139   -0.3971 C   0  0  0  0  0  0  0  0  0  0  0  0
   -0.0644   -1.5175   -0.7188 O   0  0  0  0  0  0  0  0  0  0  0  0
    0.3426    0.6221   -0.2009 O   0  0  0  0  0  0  0  0  0  0  0  0
    1.7586    0.4309   -0.3471 C   0  0  0  0  0  0  0  0  0  0  0  0
    2.3847   -0.0385    0.9572 C   0  0  0  0  0  0  0  0  0  0  0  0
   -3.2260    1.1860    0.9380 H   0  0  0  0  0  0  0  0  0  0  0  0
   -1.8274    0.5939    1.8368 H   0  0  0  0  0  0  0  0  0  0  0  0
   -1.6292    1.8902    0.6565 H   0  0  0  0  0  0  0  0  0  0  0  0
   -2.2602    0.3268   -1.1807 H   0  0  0  0  0  0  0  0  0  0  0  0
   -2.4549   -0.9898   -0.0228 H   0  0  0  0  0  0  0  0  0  0  0  0
    1.9330   -0.2997   -1.1429 H   0  0  0  0  0  0  0  0  0  0  0  0
    2.1395    1.4098   -0.6401 H   0  0  0  0  0  0  0  0  0  0  0  0
    2.1623    0.6659    1.7541 H   0  0  0  0  0  0  0  0  0  0  0  0
    1.9920   -1.0163    1.2276 H   0  0  0  0  0  0  0  0  0  0  0  0
    3.4601   -0.1130    0.8337 H   0  0  0  0  0  0  0  0  0  0  0  0
  1  2  1  0  0  0  0
  2  3  1  0  0  0  0
  3  4  2  0  0  0  0
  3  5  1  0  0  0  0
  5  6  1  0  0  0  0
  6  7  1  0  0  0  0
  1  8  1  0  0  0  0
  1  9  1  0  0  0  0
  1 10  1  0  0  0  0
  2 11  1  0  0  0  0
  2 12  1  0  0  0  0
  6 13  1  0  0  0  0
  6 14  1  0  0  0  0
  7 15  1  0  0  0  0
  7 16  1  0  0  0  0
  7 17  1  0  0  0  0
M  END
