  5
 
 C          0.1400000000       -0.0330000000        0.0340000000
 Cl        -0.5440000000       -0.1480000000       -1.5910000000
 Cl        -1.0670000000        0.5280000000        1.1960000000
 H          0.9750000000        0.6720000000        0.0200000000
 H          0.4970000000       -1.0190000000        0.3410000000
