  20
 
 C          0.5644864002        1.6978262798       -0.0610309721
 C          1.3979265303        0.4298436422       -0.2514761680
 H          1.6426302898        0.3053043884       -1.3192014550
 C          0.5571162766       -0.7737371665        0.1889027117
 H          0.3202930702       -0.6726312057        1.2618485451
 C         -0.7548409490       -0.7949397388       -0.6072722181
 H         -0.5297442321       -0.9593527517       -1.6663307704
 C         -1.4706220630        0.5579599116       -0.4426041956
 H         -2.3204469705        0.6172919396       -1.1411900315
 O         -0.6554051721        1.6395349434       -0.7806942129
 O         -1.9214538482        0.6139196159        0.8850544036
 O         -1.5713996466       -1.8600446672       -0.1993990614
 O          1.3004294393       -1.9514056023       -0.0255722959
 O          2.5695119011        0.5437718169        0.5103035901
 H          1.0965189282        2.5666051117       -0.4469246565
 H          0.3787722265        1.8356784499        1.0115054537
 H         -2.3380155481        1.4701798397        1.0348832032
 H         -1.9723458760       -1.6088321375        0.6438596810
 H          0.6728011292       -2.6835709758       -0.0763041452
 H          2.9711797399       -0.3341317588        0.5417922738
          20
        -36.13987872
 C          0.6371940787        1.6900265719       -0.0314731199
 C          1.4077473105        0.3913696442       -0.2728462013
 H          1.5909396390        0.2648174332       -1.3524631974
 C          0.5456328139       -0.7825833692        0.2051155442
 H          0.3728143213       -0.6828143170        1.2902711396
 C         -0.8082906970       -0.7450760086       -0.5169791377
 H         -0.6484552656       -0.9070596378       -1.5881805569
 C         -1.4596539955        0.6326955348       -0.3013050291
 H         -2.3461101988        0.7316843713       -0.9479347693
 O         -0.6237654424        1.6847707055       -0.6791274796
 O         -1.8297001967        0.6937280085        1.0510547800
 O         -1.6430997758       -1.7816807904       -0.0740605782
 O          1.2299383056       -1.9854298742       -0.0599231413
 O          2.6213569733        0.4547720000        0.4265440947
 H          1.1803124222        2.5388230349       -0.4453623887
 H          0.5200920509        1.8297725322        1.0504550858
 H         -2.2006242345        1.5649299038        1.2317966607
 H         -1.9874353559       -1.5241715079        0.7921962516
 H          0.5739417340       -2.6941548217       -0.0717375979
 H          2.9932122185       -0.4366006062        0.4264575111
