 20

C      0.352000    -0.718000    -0.749000
C      0.358000    -2.120000    -0.152000
H      0.918000    -2.117000     0.790000
C      0.979000    -3.131000    -1.119000
H      0.298000    -3.363000    -1.943000
C      2.319000    -2.609000    -1.640000
H      3.049000    -2.638000    -0.822000
C      2.208000    -1.175000    -2.165000
H      3.235000    -0.798000    -2.377000
O      1.655000    -0.316000    -1.164000
O      1.491000    -1.097000    -3.396000
O      2.809000    -3.453000    -2.676000
O      1.221000    -4.359000    -0.430000
O     -0.985000    -2.486000     0.144000
H      0.001000    -0.000000     0.000000
H     -0.351000    -0.642000    -1.588000
H      1.474000    -0.161000    -3.645000
H      3.655000    -3.075000    -2.965000
H      1.612000    -4.963000    -1.079000
H     -0.954000    -3.379000     0.521000
