 xtb: 6.7.1 (edcfbbe)
          04112512213D

 14 13  0     0  0            999 V2000
   -2.7619    0.3090    0.0064 C   0  0  0  0  0  0  0  0  0  0  0  0
   -1.3430    0.0683   -0.4918 C   0  0  0  0  0  0  0  0  0  0  0  0
   -0.3393    0.0765    0.6715 C   0  0  0  0  0  0  0  0  0  0  0  0
    1.0437   -0.1749    0.1411 C   0  0  0  0  0  0  0  0  0  0  0  0
    1.6252   -1.2388    0.1925 O   0  0  0  0  0  0  0  0  0  0  0  0
    1.5698    0.8953   -0.4326 O   0  0  0  0  0  0  0  0  0  0  0  0
   -3.0565   -0.4670    0.7083 H   0  0  0  0  0  0  0  0  0  0  0  0
   -3.4576    0.3010   -0.8283 H   0  0  0  0  0  0  0  0  0  0  0  0
   -2.8321    1.2717    0.5061 H   0  0  0  0  0  0  0  0  0  0  0  0
   -1.2895   -0.8959   -1.0019 H   0  0  0  0  0  0  0  0  0  0  0  0
   -1.0646    0.8459   -1.2053 H   0  0  0  0  0  0  0  0  0  0  0  0
   -0.3586    1.0512    1.1583 H   0  0  0  0  0  0  0  0  0  0  0  0
   -0.5902   -0.7057    1.3872 H   0  0  0  0  0  0  0  0  0  0  0  0
    2.4539    0.7272   -0.8121 H   0  0  0  0  0  0  0  0  0  0  0  0
  1  2  1  0  0  0  0
  2  3  1  0  0  0  0
  3  4  1  0  0  0  0
  4  5  2  0  0  0  0
  4  6  1  0  0  0  0
  1  7  1  0  0  0  0
  1  8  1  0  0  0  0
  1  9  1  0  0  0  0
  2 10  1  0  0  0  0
  2 11  1  0  0  0  0
  3 12  1  0  0  0  0
  3 13  1  0  0  0  0
  6 14  1  0  0  0  0
M  END
