 22

C      5.840000    -0.422000     0.183000
C      4.666000     0.296000    -0.118000
C      3.405000    -0.282000     0.122000
C      2.139000     0.283000    -0.116000
C      0.973000    -0.447000     0.188000
C      1.045000    -1.742000     0.728000
C      2.291000    -2.297000     0.961000
C      3.413000    -1.571000     0.660000
C      4.542000    -2.286000     0.959000
C      5.782000    -1.717000     0.723000
C      4.201000    -3.634000     1.521000
C      2.648000    -3.642000     1.523000
H      6.807000     0.036000    -0.007000
H      4.743000     1.297000    -0.536000
H      2.050000     1.283000    -0.533000
H      0.000000     0.000000    -0.000000
H      0.137000    -2.290000     0.956000
H      6.696000    -2.256000     0.949000
H      4.593000    -4.436000     0.888000
H      4.592000    -3.748000     2.537000
H      2.262000    -4.448000     0.891000
H      2.261000    -3.760000     2.541000
