  21
 
 C         -2.5247011840        0.7194785220       -0.0359000308
 C         -1.2075821716        0.0013362995        0.0214723350
 C         -1.1940327237       -1.3848987576        0.0937702460
 C         -0.0010438162       -2.0801841999        0.1354338323
 C          1.1929768202       -1.3866943940        0.0928732609
 C          1.2082668603       -0.0005281396        0.0206041551
 C          0.0008490352        0.7029765587       -0.0010678885
 C          0.0031089763        2.2029548214       -0.0778217873
 C          2.5259274671        0.7163693338       -0.0375233082
 H         -2.5673625628        1.3857744614       -0.8959378376
 H         -3.3415329027        0.0059146154       -0.1124640293
 H         -2.6804316694        1.3157931878        0.8630832535
 H         -2.1304777409       -1.9242459279        0.1147771485
 H         -0.0018548481       -3.1587854726        0.1935875707
 H          2.1286877249       -1.9273347690        0.1133354473
 H          0.0135975617        2.5255801062       -1.1200917778
 H         -0.8805465707        2.6221810055        0.3945509503
 H          0.8791167765        2.6195703537        0.4111160796
 H          2.5678362102        1.3842647203       -0.8965534349
 H          2.6835399499        1.3112591221        0.8625302234
 H          3.3420206048        0.0021192756       -0.1163975283
          21
        -25.38888879
 C         -2.5160194595        0.7838792875        0.0002240098
 C         -1.2123309022        0.0370789996        0.0000968078
 C         -1.2347439226       -1.3517597703        0.0003624811
 C         -0.0629348517       -2.0831446895       -0.0002579374
 C          1.1513726160       -1.4240703890       -0.0005399547
 C          1.2029376374       -0.0377776856       -0.0001399329
 C          0.0160149095        0.7021012606       -0.0001647589
 C          0.1010545639        2.2010825154       -0.0005419087
 C          2.5326050185        0.6551313393        0.0007366973
 H         -2.6032306497        1.4157816501        0.8835064166
 H         -2.6031562089        1.4160251518       -0.8828984038
 H         -3.3489924723        0.0849802840        0.0001371966
 H         -2.1855614477       -1.8658336956        0.0013836778
 H         -0.0961616598       -3.1627906951       -0.0000186426
 H          2.0716343806       -1.9909690322       -0.0010302410
 H         -0.8785294025        2.6651866463       -0.0021494853
 H          0.6427747805        2.5481981285        0.8792520056
 H          0.6453538762        2.5476423999       -0.8789484391
 H          3.3420285753       -0.0705807128       -0.0010743703
 H          2.6381307478        1.2916465946       -0.8774617887
 H          2.6384093273        1.2874380083        0.8819773698
