  29
 
 C          4.1892662242       -0.2499516533       -0.5172626906
 C          2.7636439766       -0.7312456985       -0.5067589622
 O          2.1355548678       -1.0705948645       -1.4712346334
 O          2.2925591755       -0.7666230153        0.7524099355
 C          0.9394567661       -1.1500538727        0.9384601891
 C          0.0632921910        0.0904403760        1.1258861720
 C         -1.3844701971       -0.2846451628        1.4764630953
 O         -1.9329939123       -1.1261624119        0.4736835500
 C         -2.5594540742       -0.5339292401       -0.5595259390
 O         -2.7864031661        0.6433964110       -0.6245031890
 C         -2.9271481479       -1.5516164229       -1.6016574371
 O          0.0789142260        0.8061472472       -0.1021865749
 C         -0.1655654853        2.1292185433       -0.0485673293
 O         -0.2763172559        2.7361434323        0.9819533498
 C         -0.2873483107        2.6906101670       -1.4315960827
 H          4.4279065088        0.1651802955       -1.4918031319
 H          4.8433655056       -1.0993294364       -0.3283372098
 H          4.3425371122        0.4864395987        0.2655996321
 H          0.5954799796       -1.7085765327        0.0620240323
 H          0.9022411709       -1.7735439834        1.8334087577
 H          0.4680295667        0.7326292968        1.9198329586
 H         -1.9806358706        0.6311857539        1.5549556656
 H         -1.4190604693       -0.8440976037        2.4121229510
 H         -3.1263801060       -2.5117895294       -1.1363983942
 H         -2.0821100940       -1.6603249032       -2.2798250254
 H         -3.7875719930       -1.2064918612       -2.1668679460
 H         -1.3142924744        2.5184776740       -1.7533143691
 H          0.3802796150        2.1669750759       -2.1092575777
 H         -0.0881608789        3.7575281772       -1.4236164941
          29
        -50.85779848
 C         -2.0145447792        2.4843503043        0.9515725210
 C         -1.4593736580        1.6898874710       -0.1905743788
 O         -2.0861858151        1.3003209347       -1.1412317649
 O         -0.1513168559        1.4420199031       -0.0123209328
 C          0.4983987946        0.6088778053       -0.9604282593
 C          1.0691442966       -0.6529658031       -0.2994439005
 C          0.0408238232       -1.3732548841        0.5778645469
 O         -1.1170577165       -1.6852321395       -0.1779466025
 C         -2.3032356204       -1.2414642074        0.2787651473
 O         -2.4353373649       -0.6591700512        1.3225471929
 C         -3.3986121326       -1.5561617622       -0.6921096220
 O          2.1644017858       -0.3405188077        0.5571868517
 C          3.3551080889       -0.1197219522       -0.0244177867
 O          3.5401034568       -0.1912570096       -1.2090774726
 C          4.3916667605        0.2309175751        1.0054724810
 H         -2.8015937791        3.1429270179        0.5969258382
 H         -1.2266155186        3.0426763931        1.4460634571
 H         -2.4474324740        1.7734276148        1.6554130551
 H         -0.2193764111        0.3190705002       -1.7356038502
 H          1.3153526128        1.1789164655       -1.4113757381
 H          1.4227136732       -1.3102251886       -1.1050262479
 H         -0.2318094795       -0.7319879680        1.4235871229
 H          0.4713413557       -2.3053551420        0.9554311425
 H         -3.5098645497       -0.6868375822       -1.3398212512
 H         -4.3314976133       -1.7163189741       -0.1604202193
 H         -3.1356234190       -2.4183140008       -1.2959906584
 H          5.3787747222       -0.0262174308        0.6335729002
 H          4.1807577686       -0.2812381831        1.9387670123
 H          4.3528003939        1.3042911924        1.1820516486
