 29

C      1.159000     2.123000     3.263000
C      0.966000     1.011000     2.276000
O      0.716000    -0.146000     2.587000
O      1.111000     1.495000     1.010000
C      0.952000     0.538000    -0.033000
C      1.144000     1.233000    -1.374000
C      0.986000     0.257000    -2.535000
O      1.953000    -0.782000    -2.428000
C      1.918000    -1.728000    -3.413000
O      1.143000    -1.757000    -4.359000
C      2.986000    -2.752000    -3.172000
O      2.467000     1.773000    -1.406000
C      2.618000     2.914000    -2.138000
O      1.740000     3.502000    -2.755000
C      4.047000     3.363000    -2.081000
H      2.213000     2.191000     3.543000
H      0.536000     1.949000     4.144000
H      0.858000     3.070000     2.805000
H      1.699000    -0.249000     0.117000
H     -0.052000     0.111000     0.050000
H      0.455000     2.080000    -1.472000
H      1.127000     0.753000    -3.500000
H     -0.002000    -0.215000    -2.521000
H      2.591000    -3.562000    -2.554000
H      3.847000    -2.283000    -2.688000
H      3.311000    -3.170000    -4.129000
H      4.611000     2.911000    -2.901000
H      4.483000     3.090000    -1.117000
H      4.090000     4.451000    -2.186000
