  29
 
 C          1.1590000000        2.1230000000        3.2630000000
 C          0.9660000000        1.0110000000        2.2760000000
 O          0.7160000000       -0.1460000000        2.5870000000
 O          1.1110000000        1.4950000000        1.0100000000
 C          0.9520000000        0.5380000000       -0.0330000000
 C          1.1440000000        1.2330000000       -1.3740000000
 C          0.9860000000        0.2570000000       -2.5350000000
 O          1.9530000000       -0.7820000000       -2.4280000000
 C          1.9180000000       -1.7280000000       -3.4130000000
 O          1.1430000000       -1.7570000000       -4.3590000000
 C          2.9860000000       -2.7520000000       -3.1720000000
 O          2.4670000000        1.7730000000       -1.4060000000
 C          2.6180000000        2.9140000000       -2.1380000000
 O          1.7400000000        3.5020000000       -2.7550000000
 C          4.0470000000        3.3630000000       -2.0810000000
 H          2.2130000000        2.1910000000        3.5430000000
 H          0.5360000000        1.9490000000        4.1440000000
 H          0.8580000000        3.0700000000        2.8050000000
 H          1.6990000000       -0.2490000000        0.1170000000
 H         -0.0520000000        0.1110000000        0.0500000000
 H          0.4550000000        2.0800000000       -1.4720000000
 H          1.1270000000        0.7530000000       -3.5000000000
 H         -0.0020000000       -0.2150000000       -2.5210000000
 H          2.5910000000       -3.5620000000       -2.5540000000
 H          3.8470000000       -2.2830000000       -2.6880000000
 H          3.3110000000       -3.1700000000       -4.1290000000
 H          4.6110000000        2.9110000000       -2.9010000000
 H          4.4830000000        3.0900000000       -1.1170000000
 H          4.0900000000        4.4510000000       -2.1860000000
