 xtb: 6.7.1 (edcfbbe)
          04072505513D

 15 14  0     0  0            999 V2000
    2.7205   -0.0812   -0.5698 C   0  0  0  0  0  0  0  0  0  0  0  0
    1.7349   -0.5645    0.4879 C   0  0  0  0  0  0  0  0  0  0  0  0
    0.5797    0.4138    0.7053 C   0  0  0  0  0  0  0  0  0  0  0  0
   -0.3892    0.4623   -0.4783 C   0  0  0  0  0  0  0  0  0  0  0  0
   -2.0724   -0.1345   -0.0612 S   0  0  0  0  0  0  0  0  0  0  0  0
    3.5246   -0.8022   -0.6941 H   0  0  0  0  0  0  0  0  0  0  0  0
    3.1555    0.8709   -0.2744 H   0  0  0  0  0  0  0  0  0  0  0  0
    2.2305    0.0517   -1.5314 H   0  0  0  0  0  0  0  0  0  0  0  0
    2.2651   -0.6929    1.4337 H   0  0  0  0  0  0  0  0  0  0  0  0
    1.3314   -1.5383    0.2009 H   0  0  0  0  0  0  0  0  0  0  0  0
    0.9855    1.4114    0.8828 H   0  0  0  0  0  0  0  0  0  0  0  0
    0.0362    0.1145    1.6034 H   0  0  0  0  0  0  0  0  0  0  0  0
   -0.5015    1.4650   -0.8852 H   0  0  0  0  0  0  0  0  0  0  0  0
   -0.0736   -0.2056   -1.2787 H   0  0  0  0  0  0  0  0  0  0  0  0
   -2.3857    0.8575    0.7630 H   0  0  0  0  0  0  0  0  0  0  0  0
  1  2  1  0  0  0  0
  2  3  1  0  0  0  0
  3  4  1  0  0  0  0
  4  5  1  0  0  0  0
  1  6  1  0  0  0  0
  1  7  1  0  0  0  0
  1  8  1  0  0  0  0
  2  9  1  0  0  0  0
  2 10  1  0  0  0  0
  3 11  1  0  0  0  0
  3 12  1  0  0  0  0
  4 13  1  0  0  0  0
  4 14  1  0  0  0  0
  5 15  1  0  0  0  0
M  END
