16
 xtb: 6.7.1 (edcfbbe)
C           -2.09557037123592       -0.63232482280292       -0.55812865547536
C           -1.34871669540174       -0.23261860941627        0.71269404360972
C           -0.50848739063374        1.03499635453356        0.55748367790218
C            0.59935557438188        0.93447965663673       -0.50997754871945
C            1.54283990790139       -0.13913143905518       -0.24542783879965
C            2.30832627549422       -1.03877940448350        0.00604026665967
H           -2.75113288886431       -1.48933237941157       -0.37389186199479
H           -1.40626171500231       -0.91442561773010       -1.36142252769676
H           -2.71705507803369        0.19387397850094       -0.92374909090960
H           -2.07005461055746       -0.06720742523759        1.52201616402494
H           -0.70354084343852       -1.05974968480328        1.03655887908627
H           -1.15785172259889        1.87300357941587        0.27726190355180
H           -0.04668059859959        1.28979153041293        1.51779600430790
H            1.14574744818505        1.88378107644519       -0.55555790984244
H            0.15656466867868        0.78435245542382       -1.50184632361692
H            2.99255685891911       -1.83004515189392        0.21707701014246
