  14
 
 C          1.9730725301       -0.8132174991        0.3471412616
 C          0.7366045820        0.0705523807        0.2846235446
 C          1.0393229463        1.4519421462       -0.2841648521
 O         -0.2211656936       -0.5979556048       -0.5651542896
 C         -1.4980036326       -0.3973996828       -0.3215685888
 O         -1.9763081095        0.2815680772        0.5392776754
 H          1.7157236311       -1.7965320250        0.7318378860
 H          2.3959199990       -0.9286418052       -0.6474117748
 H          2.7150930859       -0.3621089827        0.9994188055
 H          0.2826901744        0.1741221929        1.2784893293
 H          0.1295141832        2.0461520946       -0.3262226037
 H          1.4492627367        1.3613421967       -1.2875331807
 H          1.7597436151        1.9609439125        0.3497855708
 H         -2.0904086607       -0.9772602688       -1.0519615584
          14
        -20.78055804
 C          1.9776947951       -0.8208751075        0.3171912497
 C          0.7376731911        0.0594309849        0.2796678069
 C          1.0261272837        1.4435113060       -0.2902084911
 O         -0.2334053967       -0.6098720875       -0.5539956046
 C         -1.5060671462       -0.3922632689       -0.3026484636
 O         -1.9690768449        0.3027713882        0.5538813446
 H          2.3841027555       -0.9304174633       -0.6847672854
 H          2.7289384172       -0.3702807330        0.9591173591
 H          1.7298316906       -1.8067350774        0.7014671193
 H          0.3020542782        0.1588269415        1.2822478572
 H          0.1169460937        2.0397756409       -0.3018320214
 H          1.4055195070        1.3572120638       -1.3057266533
 H          1.7663798384        1.9472664826        0.3244696809
 H         -2.1108564364       -0.9742845139       -1.0208547687
