 14

C      1.077000     0.050000     0.196000
C      1.353000     0.919000     1.413000
C      2.843000     1.038000     1.698000
O      0.812000     2.218000     1.194000
C      0.377000     2.869000     2.307000
O      0.401000     2.464000     3.459000
H      0.003000    -0.029000     0.000000
H      1.564000     0.469000    -0.691000
H      1.483000    -0.959000     0.331000
H      0.847000     0.496000     2.287000
H      3.031000     1.665000     2.575000
H      3.361000     1.475000     0.837000
H      3.291000     0.053000     1.868000
H     -0.015000     3.854000     2.010000
