 xtb: 6.7.1 (edcfbbe)
          04112512023D

 20 19  0     0  0            999 V2000
    2.3376    0.5157   -0.6144 C   0  0  0  0  0  0  0  0  0  0  0  0
    1.6127   -0.4705    0.2956 C   0  0  0  0  0  0  0  0  0  0  0  0
    0.2831    0.0859    0.8102 C   0  0  0  0  0  0  0  0  0  0  0  0
   -0.8419    0.0507   -0.2357 C   0  0  0  0  0  0  0  0  0  0  0  0
   -1.8300    1.1925   -0.0052 C   0  0  0  0  0  0  0  0  0  0  0  0
   -1.5726   -1.2904   -0.2026 C   0  0  0  0  0  0  0  0  0  0  0  0
    3.2763    0.0934   -0.9649 H   0  0  0  0  0  0  0  0  0  0  0  0
    1.7316    0.7650   -1.4819 H   0  0  0  0  0  0  0  0  0  0  0  0
    2.5548    1.4357   -0.0757 H   0  0  0  0  0  0  0  0  0  0  0  0
    1.4373   -1.4041   -0.2427 H   0  0  0  0  0  0  0  0  0  0  0  0
    2.2567   -0.6980    1.1479 H   0  0  0  0  0  0  0  0  0  0  0  0
   -0.0345   -0.4856    1.6851 H   0  0  0  0  0  0  0  0  0  0  0  0
    0.4462    1.1154    1.1356 H   0  0  0  0  0  0  0  0  0  0  0  0
   -0.4033    0.1776   -1.2306 H   0  0  0  0  0  0  0  0  0  0  0  0
   -1.3308    2.1542   -0.0995 H   0  0  0  0  0  0  0  0  0  0  0  0
   -2.2626    1.1243    0.9906 H   0  0  0  0  0  0  0  0  0  0  0  0
   -2.6363    1.1525   -0.7342 H   0  0  0  0  0  0  0  0  0  0  0  0
   -2.3149   -1.3418   -0.9960 H   0  0  0  0  0  0  0  0  0  0  0  0
   -0.8756   -2.1149   -0.3320 H   0  0  0  0  0  0  0  0  0  0  0  0
   -2.0819   -1.4178    0.7508 H   0  0  0  0  0  0  0  0  0  0  0  0
  1  2  1  0  0  0  0
  2  3  1  0  0  0  0
  3  4  1  0  0  0  0
  4  5  1  0  0  0  0
  4  6  1  0  0  0  0
  1  7  1  0  0  0  0
  1  8  1  0  0  0  0
  1  9  1  0  0  0  0
  2 10  1  0  0  0  0
  2 11  1  0  0  0  0
  3 12  1  0  0  0  0
  3 13  1  0  0  0  0
  4 14  1  0  0  0  0
  5 15  1  0  0  0  0
  5 16  1  0  0  0  0
  5 17  1  0  0  0  0
  6 18  1  0  0  0  0
  6 19  1  0  0  0  0
  6 20  1  0  0  0  0
M  END
