 xtb: 6.7.1 (edcfbbe)
          04112511553D

 24 24  0     0  0            999 V2000
   -3.5746   -0.3212   -0.2526 C   0  0  0  0  0  0  0  0  0  0  0  0
   -2.1800   -0.6012    0.2952 C   0  0  0  0  0  0  0  0  0  0  0  0
   -1.1738    0.4553   -0.1576 C   0  0  0  0  0  0  0  0  0  0  0  0
    0.2182    0.2459    0.4356 C   0  0  0  0  0  0  0  0  0  0  0  0
    0.8983   -1.0486   -0.0277 C   0  0  0  0  0  0  0  0  0  0  0  0
    2.3856   -0.7482    0.1222 C   0  0  0  0  0  0  0  0  0  0  0  0
    2.5004    0.6796   -0.4082 C   0  0  0  0  0  0  0  0  0  0  0  0
    1.2032    1.3698    0.0419 C   0  0  0  0  0  0  0  0  0  0  0  0
   -4.2766   -1.0816    0.0807 H   0  0  0  0  0  0  0  0  0  0  0  0
   -3.9304    0.6486    0.0884 H   0  0  0  0  0  0  0  0  0  0  0  0
   -3.5624   -0.3175   -1.3403 H   0  0  0  0  0  0  0  0  0  0  0  0
   -2.2160   -0.6182    1.3870 H   0  0  0  0  0  0  0  0  0  0  0  0
   -1.8511   -1.5857   -0.0417 H   0  0  0  0  0  0  0  0  0  0  0  0
   -1.1061    0.4445   -1.2484 H   0  0  0  0  0  0  0  0  0  0  0  0
   -1.5389    1.4412    0.1422 H   0  0  0  0  0  0  0  0  0  0  0  0
    0.1259    0.2178    1.5263 H   0  0  0  0  0  0  0  0  0  0  0  0
    0.5866   -1.9135    0.5556 H   0  0  0  0  0  0  0  0  0  0  0  0
    0.6640   -1.2342   -1.0776 H   0  0  0  0  0  0  0  0  0  0  0  0
    2.6651   -0.7813    1.1765 H   0  0  0  0  0  0  0  0  0  0  0  0
    3.0153   -1.4489   -0.4243 H   0  0  0  0  0  0  0  0  0  0  0  0
    3.3880    1.1890   -0.0359 H   0  0  0  0  0  0  0  0  0  0  0  0
    2.5553    0.6589   -1.4974 H   0  0  0  0  0  0  0  0  0  0  0  0
    1.3870    2.0283    0.8904 H   0  0  0  0  0  0  0  0  0  0  0  0
    0.7908    1.9785   -0.7626 H   0  0  0  0  0  0  0  0  0  0  0  0
  1  2  1  0  0  0  0
  2  3  1  0  0  0  0
  3  4  1  0  0  0  0
  4  5  1  0  0  0  0
  5  6  1  0  0  0  0
  6  7  1  0  0  0  0
  4  8  1  0  0  0  0
  7  8  1  0  0  0  0
  1  9  1  0  0  0  0
  1 10  1  0  0  0  0
  1 11  1  0  0  0  0
  2 12  1  0  0  0  0
  2 13  1  0  0  0  0
  3 14  1  0  0  0  0
  3 15  1  0  0  0  0
  4 16  1  0  0  0  0
  5 17  1  0  0  0  0
  5 18  1  0  0  0  0
  6 19  1  0  0  0  0
  6 20  1  0  0  0  0
  7 21  1  0  0  0  0
  7 22  1  0  0  0  0
  8 23  1  0  0  0  0
  8 24  1  0  0  0  0
M  END
