  5
 
 C         -1.9194761715        0.0000240435        0.0005023377
 I          0.2231986803       -0.0000728638       -0.0009183799
 H         -2.2576355367        0.4974156994       -0.8996060154
 H         -2.2578077708       -1.0281071343        0.0197436845
 H         -2.2576900127        0.5308519134        0.8812431632
           5
         -7.47337188
 C         -1.9087844426        0.0000048721       -0.0000083313
 I          0.2341943833       -0.0000001858        0.0000004632
 H         -2.2468524206       -0.7176327211       -0.7367278123
 H         -2.2469627408       -0.2792977380        0.9898041699
 H         -2.2468447996        0.9968957911       -0.2530353927
