  5
 
 C          0.1100000000       -0.0900000000       -0.1200000000
 I         -1.1370000000        0.9310000000        1.2450000000
 H          0.7690000000        0.6050000000       -0.6490000000
 H          0.7400000000       -0.8230000000        0.3940000000
 H         -0.4820000000       -0.6240000000       -0.8690000000
