 xtb: 6.7.1 (edcfbbe)
          04112511493D

 21 20  0     0  0            999 V2000
    1.4833    0.1548   -1.1744 C   0  0  0  0  0  0  0  0  0  0  0  0
    1.1161   -0.2329    0.2538 C   0  0  0  0  0  0  0  0  0  0  0  0
    0.9954   -1.3258    0.3083 H   0  0  0  0  0  0  0  0  0  0  0  0
   -0.1474    0.4539    0.7947 C   0  0  0  0  0  0  0  0  0  0  0  0
   -1.5048    0.0950    0.1641 C   0  0  0  0  0  0  0  0  0  0  0  0
   -1.7795    0.8308   -1.1465 C   0  0  0  0  0  0  0  0  0  0  0  0
   -1.6867   -1.4108   -0.0165 C   0  0  0  0  0  0  0  0  0  0  0  0
    2.2339    0.1329    1.0589 O   0  0  0  0  0  0  0  0  0  0  0  0
    0.8381   -0.3427   -1.8898 H   0  0  0  0  0  0  0  0  0  0  0  0
    1.4139    1.2312   -1.3030 H   0  0  0  0  0  0  0  0  0  0  0  0
    2.5110   -0.1482   -1.3606 H   0  0  0  0  0  0  0  0  0  0  0  0
   -0.2078    0.2039    1.8588 H   0  0  0  0  0  0  0  0  0  0  0  0
    0.0030    1.5339    0.7244 H   0  0  0  0  0  0  0  0  0  0  0  0
   -2.2610    0.4361    0.8824 H   0  0  0  0  0  0  0  0  0  0  0  0
   -1.6229    1.8998   -1.0252 H   0  0  0  0  0  0  0  0  0  0  0  0
   -2.8124    0.6699   -1.4477 H   0  0  0  0  0  0  0  0  0  0  0  0
   -1.1370    0.4769   -1.9458 H   0  0  0  0  0  0  0  0  0  0  0  0
   -1.0264   -1.7920   -0.7912 H   0  0  0  0  0  0  0  0  0  0  0  0
   -1.4774   -1.9384    0.9111 H   0  0  0  0  0  0  0  0  0  0  0  0
   -2.7114   -1.6277   -0.3091 H   0  0  0  0  0  0  0  0  0  0  0  0
    2.0517   -0.0844    1.9826 H   0  0  0  0  0  0  0  0  0  0  0  0
  1  2  1  0  0  0  0
  2  3  1  0  0  0  0
  2  4  1  0  0  0  0
  4  5  1  0  0  0  0
  5  6  1  0  0  0  0
  5  7  1  0  0  0  0
  2  8  1  0  0  0  0
  1  9  1  0  0  0  0
  1 10  1  0  0  0  0
  1 11  1  0  0  0  0
  4 12  1  0  0  0  0
  4 13  1  0  0  0  0
  5 14  1  0  0  0  0
  6 15  1  0  0  0  0
  6 16  1  0  0  0  0
  6 17  1  0  0  0  0
  7 18  1  0  0  0  0
  7 19  1  0  0  0  0
  7 20  1  0  0  0  0
  8 21  1  0  0  0  0
M  END
