  22
 
 C         -4.2315951570        0.9446549191        0.0000197031
 O         -3.4703275255       -0.2403043502        0.0023161607
 C         -2.1182360525       -0.1504838659        0.0018273500
 C         -1.4269767553       -1.3671771923        0.0006755978
 C         -0.0530710815       -1.3853691124       -0.0003034801
 C          0.6708389428       -0.1909998920        0.0001929327
 C         -0.0168648465        1.0179092443        0.0016609865
 C         -1.3981248156        1.0429209735        0.0023313917
 C          2.1454351122       -0.2580350021       -0.0008403539
 O          2.7862032046       -1.2819652432       -0.0043043710
 O          2.7204635531        0.9594233076        0.0023665029
 C          4.1385518067        0.9680325184        0.0018886391
 H         -5.2724710796        0.6252928995       -0.0000894634
 H         -4.0373871735        1.5444437748       -0.8946526114
 H         -4.0386886178        1.5475116692        0.8928666700
 H         -2.0008786774       -2.2801845302        0.0004519758
 H          0.4902097771       -2.3178527746       -0.0014349108
 H          0.5366553786        1.9436804156        0.0021529699
 H         -1.9045394241        1.9952738493        0.0033296905
 H          4.4369774321        2.0133668981        0.0001221827
 H          4.5215620761        0.4574668089       -0.8843904162
 H          4.5220714150        0.4604793791        0.8896968231
          22
        -36.56829994
 C         -4.3719385404        0.4713698687        0.0004214227
 O         -3.4324636623       -0.5781775690        0.0002137007
 C         -2.1118175712       -0.2750341099       -0.0001852464
 C         -1.5882755337        1.0165308854       -0.0016690101
 C         -0.2201253826        1.2011769636       -0.0015679841
 C          0.6499766890        0.1150458316       -0.0002576849
 C          0.1236513842       -1.1777032231        0.0008904206
 C         -1.2379802680       -1.3682640635        0.0009987042
 C          2.1028418200        0.3764124006        0.0005234805
 O          2.6016783110        1.4769306479        0.0026520190
 O          2.8334662417       -0.7534139520       -0.0018269184
 C          4.2402891154       -0.5751514652       -0.0005124543
 H         -4.2774657659        1.0945511009       -0.8942156148
 H         -4.2745603548        1.0968461304        0.8931344922
 H         -5.3489123224       -0.0091846271        0.0026398464
 H         -2.2359962015        1.8787972030       -0.0029062696
 H          0.1979971128        2.1964551136       -0.0026237940
 H          0.7921038357       -2.0237869937        0.0019777624
 H         -1.6642053559       -2.3590483264        0.0021414622
 H          4.5532430753       -0.0123608193       -0.8827058771
 H          4.6737288347       -1.5719853516       -0.0091027270
 H          4.5534033547       -0.0279201981        0.8913580766
