 22

C      0.835000    -0.392000    -2.138000
O      1.927000    -1.016000    -1.473000
C      1.885000    -1.036000    -0.112000
C      2.921000    -1.631000     0.608000
C      2.878000    -1.652000     2.002000
C      1.800000    -1.079000     2.676000
C      0.764000    -0.484000     1.955000
C      0.807000    -0.463000     0.561000
C      1.756000    -1.099000     4.129000
O      2.630000    -1.602000     4.849000
O      0.628000    -0.491000     4.608000
C      0.471000    -0.446000     6.030000
H      0.989000    -0.442000    -3.219000
H      0.759000     0.650000    -1.818000
H     -0.087000    -0.919000    -1.879000
H      3.764000    -2.079000     0.089000
H      3.692000    -2.118000     2.553000
H     -0.081000    -0.034000     2.470000
H     -0.003000     0.002000     0.005000
H     -0.462000     0.062000     6.262000
H      1.318000     0.085000     6.458000
H      0.443000    -1.468000     6.401000
