 xtb: 6.7.1 (edcfbbe)
          04112512143D

 21 20  0     0  0            999 V2000
    1.7830    0.5418   -1.1166 C   0  0  0  0  0  0  0  0  0  0  0  0
    1.0708   -0.1714    0.0319 C   0  0  0  0  0  0  0  0  0  0  0  0
    0.7012   -1.1408   -0.3156 H   0  0  0  0  0  0  0  0  0  0  0  0
   -0.0915    0.6631    0.6061 C   0  0  0  0  0  0  0  0  0  0  0  0
   -1.5007    0.2792    0.1290 C   0  0  0  0  0  0  0  0  0  0  0  0
   -1.6511    0.3641   -1.3881 C   0  0  0  0  0  0  0  0  0  0  0  0
   -1.9145   -1.1027    0.6325 C   0  0  0  0  0  0  0  0  0  0  0  0
    1.9988   -0.5182    1.0515 O   0  0  0  0  0  0  0  0  0  0  0  0
    2.6121   -0.0671   -1.4703 H   0  0  0  0  0  0  0  0  0  0  0  0
    1.0984    0.7151   -1.9398 H   0  0  0  0  0  0  0  0  0  0  0  0
    2.1736    1.5004   -0.7795 H   0  0  0  0  0  0  0  0  0  0  0  0
   -0.0697    0.5490    1.6929 H   0  0  0  0  0  0  0  0  0  0  0  0
    0.0804    1.7176    0.3781 H   0  0  0  0  0  0  0  0  0  0  0  0
   -2.1849    1.0117    0.5745 H   0  0  0  0  0  0  0  0  0  0  0  0
   -1.0422   -0.3900   -1.8800 H   0  0  0  0  0  0  0  0  0  0  0  0
   -1.3549    1.3462   -1.7486 H   0  0  0  0  0  0  0  0  0  0  0  0
   -2.6884    0.1965   -1.6687 H   0  0  0  0  0  0  0  0  0  0  0  0
   -2.9452   -1.3098    0.3545 H   0  0  0  0  0  0  0  0  0  0  0  0
   -1.2861   -1.8804    0.2060 H   0  0  0  0  0  0  0  0  0  0  0  0
   -1.8325   -1.1556    1.7156 H   0  0  0  0  0  0  0  0  0  0  0  0
    2.4384    0.2877    1.3567 H   0  0  0  0  0  0  0  0  0  0  0  0
  1  2  1  0  0  0  0
  2  3  1  0  0  0  0
  2  4  1  0  0  0  0
  4  5  1  0  0  0  0
  5  6  1  0  0  0  0
  5  7  1  0  0  0  0
  2  8  1  0  0  0  0
  1  9  1  0  0  0  0
  1 10  1  0  0  0  0
  1 11  1  0  0  0  0
  4 12  1  0  0  0  0
  4 13  1  0  0  0  0
  5 14  1  0  0  0  0
  6 15  1  0  0  0  0
  6 16  1  0  0  0  0
  6 17  1  0  0  0  0
  7 18  1  0  0  0  0
  7 19  1  0  0  0  0
  7 20  1  0  0  0  0
  8 21  1  0  0  0  0
M  END
