 23

C     -2.082000    -3.499000     0.164000
C     -0.865000    -2.605000     0.341000
C     -1.058000    -1.192000    -0.214000
C      0.170000    -0.296000    -0.034000
C     -0.077000     1.102000    -0.605000
C      1.149000     2.001000    -0.426000
C      0.898000     3.395000    -0.998000
I      2.619000     4.638000    -0.740000
H     -1.908000    -4.499000     0.571000
H     -2.960000    -3.071000     0.658000
H     -2.314000    -3.611000    -0.900000
H     -0.016000    -3.068000    -0.177000
H     -0.599000    -2.556000     1.403000
H     -1.929000    -0.726000     0.262000
H     -1.289000    -1.273000    -1.284000
H      1.033000    -0.750000    -0.535000
H      0.419000    -0.210000     1.030000
H     -0.941000     1.556000    -0.104000
H     -0.324000     1.026000    -1.671000
H      2.013000     1.541000    -0.924000
H      1.396000     2.071000     0.641000
H      0.040000     3.858000    -0.497000
H      0.657000     3.327000    -2.064000
