  23
 
 C         -2.0820000000       -3.4990000000        0.1640000000
 C         -0.8650000000       -2.6050000000        0.3410000000
 C         -1.0580000000       -1.1920000000       -0.2140000000
 C          0.1700000000       -0.2960000000       -0.0340000000
 C         -0.0770000000        1.1020000000       -0.6050000000
 C          1.1490000000        2.0010000000       -0.4260000000
 C          0.8980000000        3.3950000000       -0.9980000000
 I          2.6190000000        4.6380000000       -0.7400000000
 H         -1.9080000000       -4.4990000000        0.5710000000
 H         -2.9600000000       -3.0710000000        0.6580000000
 H         -2.3140000000       -3.6110000000       -0.9000000000
 H         -0.0160000000       -3.0680000000       -0.1770000000
 H         -0.5990000000       -2.5560000000        1.4030000000
 H         -1.9290000000       -0.7260000000        0.2620000000
 H         -1.2890000000       -1.2730000000       -1.2840000000
 H          1.0330000000       -0.7500000000       -0.5350000000
 H          0.4190000000       -0.2100000000        1.0300000000
 H         -0.9410000000        1.5560000000       -0.1040000000
 H         -0.3240000000        1.0260000000       -1.6710000000
 H          2.0130000000        1.5410000000       -0.9240000000
 H          1.3960000000        2.0710000000        0.6410000000
 H          0.0400000000        3.8580000000       -0.4970000000
 H          0.6570000000        3.3270000000       -2.0640000000
