19
 xtb: 6.7.1 (edcfbbe)
C            2.47178790700764        0.84038418994533        0.29798093724829
C            1.25299823682487       -0.08138773231201        0.24947323591217
C            1.49460663659602       -1.23707509947641       -0.72330124191759
C            0.01057243848049        0.71442933429070       -0.14312890164444
C           -1.31541263964215        0.04911805915121        0.09623438685787
O           -1.42260727563386       -1.02200030539456        0.68704814671143
C           -2.54029818829842        0.77689467820677       -0.38759660635540
H            2.33272443038657        1.64863019491973        1.02388656761928
H            3.37152754740101        0.28273312865884        0.57854671798635
H            2.65086706651956        1.29533183668359       -0.68367325016395
H            1.08975023159125       -0.49518301123625        1.25284835733991
H            0.63298412272811       -1.90898154675142       -0.78049384281927
H            2.36424389692175       -1.82836983659939       -0.41762870934188
H            1.68964885807370       -0.84914049500258       -1.73050275225341
H            0.05057076523781        1.01203939867958       -1.20134533290451
H           -0.04206600519894        1.66689071401601        0.40888477474899
H           -3.16004670590920        1.03203123795106        0.47903650578844
H           -2.30057167335800        1.68703710408965       -0.93965626163265
H           -3.12863227908334        0.10469882372626       -1.02029392303766
