24
 xtb: 6.7.1 (edcfbbe)
C           -2.74711480806567       -0.68175127881343       -0.85965855797370
C           -2.06354719348035        0.47543032177357       -0.13053722137341
C           -1.23194217397473        0.02381132862139        1.08418144541156
C            0.27064468932481       -0.14888516772132        0.82712300361199
C            0.67749866251451       -1.02783896549320       -0.36540068427295
C            2.14929189417473       -0.66259914785905       -0.56941172353097
C            2.13660161579068        0.87108420274924       -0.45348873829936
C            1.02538729132393        1.18530499728091        0.58063841645851
H           -3.47199572786898       -1.17583374403400       -0.20303249169497
H           -3.28515097857839       -0.33201299371901       -1.74753420046542
H           -2.02592598999295       -1.43959509842313       -1.18187579450742
H           -1.42698814755933        1.02821760106789       -0.83352777391507
H           -2.83469280320577        1.18312305337938        0.19549129740556
H           -1.34309001631834        0.74835397222834        1.90115425009737
H           -1.64441992175460       -0.92136854469483        1.46279578371005
H            0.70119831465607       -0.61418393495828        1.72475740669059
H            0.50664235850500       -2.09467547677118       -0.18439184689127
H            0.11197705391621       -0.74041548473096       -1.26074708352161
H            2.75154107880262       -1.09928559346635        0.23755730866475
H            2.56011366496814       -1.01404743321518       -1.52144287344185
H            3.11046370020954        1.28098540713924       -0.16922001321456
H            1.87479143515134        1.30274228873040       -1.42619871070286
H            1.43770390630401        1.57069398448646        1.51868422156835
H            0.34205235676642        1.95054276716792        0.19702005077710
