23
CONF1
C -3.6915450093 -0.7101584506 -0.1207758858
C -3.5239812674 0.4962571866 0.5392725482
C -2.2805547686 1.0978528424 0.5874742016
C -1.1928789450 0.4900068245 -0.0313987206
C -1.3609386031 -0.7124571397 -0.7088545839
C -2.6095378015 -1.3069265005 -0.7454302881
O 0.0003546902 1.1731647456 -0.0028514820
C 1.1930177686 0.4893170522 0.0283761268
C 2.2831953230 1.0983572178 -0.5849381158
C 3.5264085635 0.4965878819 -0.5330637818
C 3.6913465932 -0.7112341771 0.1250142457
C 2.6067278572 -1.3094057001 0.7438236147
C 1.3583367650 -0.7148134534 0.7036027175
H -4.6617652121 -1.1803801764 -0.1527428303
H -4.3634732243 0.9710479271 1.0231351868
H -2.1298346723 2.0378160120 1.0947555631
H -0.5196930380 -1.1705865554 -1.2078925580
H -2.7344307164 -2.2406134156 -1.2720125322
H 2.1346743356 2.0393523540 -1.0908978289
H 4.3676462977 0.9722154782 -1.0128654466
H 4.6613461538 -1.1817138254 0.1597413041
H 2.7294933425 -2.2443960847 1.2686279065
H 0.5152151232 -1.1739613371 1.1984486208
23
CONF2
C -3.6531600588 -0.6996475263 0.0867281679
C -3.1024240440 0.1007627184 1.0738009051
C -1.8631487789 0.6869368834 0.8847979523
C -1.1775180351 0.4688860712 -0.3025365245
C -1.7244407339 -0.3332552543 -1.2949379353
C -2.9643541986 -0.9144784701 -1.0955449432
O 0.0349755681 1.1093651142 -0.5261542398
C 1.1904245360 0.4778296558 -0.1467548761
C 1.2242259343 -0.7748365806 0.4531343833
C 2.4424002232 -1.3333063883 0.8007821832
C 3.6238162773 -0.6564223304 0.5565185442
C 3.5858057324 0.5932824979 -0.0423366199
C 2.3781546838 1.1622665509 -0.3941408914
H -4.6190179342 -1.1555508480 0.2385307498
H -3.6365037897 0.2703029473 1.9958355179
H -1.4189690206 1.3132963642 1.6434419851
H -1.1735428289 -0.4897906453 -2.2098868215
H -3.3906852316 -1.5373158923 -1.8665379220
H 0.3037543610 -1.3065147584 0.6452853381
H 2.4611462015 -2.3066928873 1.2668158819
H 4.5689727208 -1.0982142442 0.8303993527
H 4.5020422231 1.1292751970 -0.2367906275
H 2.3268789466 2.1333346040 -0.8608652741
