23
CONF2
C -3.6557104236 -0.7082099729 0.0914660654
C -3.1026840904 0.1004070726 1.0824991777
C -1.8592815644 0.6975205210 0.8892088100
C -1.1875909360 0.4725775750 -0.3052216986
C -1.7201244644 -0.3309289962 -1.3048088762
C -2.9644725789 -0.9221227046 -1.0993796781
O 0.0291923431 1.1245161712 -0.5343269681
C 1.1936379925 0.4782087636 -0.1485605903
C 1.2114537859 -0.7790336408 0.4511778150
C 2.4392642318 -1.3396029561 0.8021178657
C 3.6304188081 -0.6620527767 0.5611147555
C 3.5915208154 0.5957002981 -0.0413785061
C 2.3783681054 1.1709615170 -0.3981211772
H -4.6259286977 -1.1688450213 0.2458580828
H -3.6403508329 0.2709752650 2.0096740568
H -1.4114745440 1.3304091710 1.6484902492
H -1.1653695368 -0.4848162260 -2.2246240859
H -3.3940779212 -1.5487497236 -1.8743846310
H 0.2894043597 -1.3155795653 0.6437685720
H 2.4550428659 -2.3190531880 1.2700339166
H 4.5799696282 -1.1074046160 0.8381857153
H 4.5126176500 1.1360894443 -0.2362221983
H 2.3350072449 2.1485479661 -0.8669815850
23
CONF1
C -3.6780115165 -0.7301827392 -0.1535294032
C -3.5069891242 0.4244013252 0.6068579989
C -2.2643414084 1.0493348271 0.6712760743
C -1.1980874892 0.5103677526 -0.0404589883
C -1.3518234654 -0.6360609126 -0.8163830175
C -2.5981172674 -1.2539853467 -0.8626707837
O 0.0003371725 1.2172939076 -0.0016559880
C 1.1982468435 0.5097109133 0.0390268615
C 2.2665587466 1.0498333593 -0.6687905401
C 3.5088994460 0.4245365004 -0.6022936528
C 3.6777213271 -0.7315837178 0.1562438683
C 2.5957578901 -1.2566915895 0.8612433153
C 1.3496933943 -0.6384546888 0.8128825256
H -4.6463420370 -1.2177199437 -0.1958007226
H -4.3421792155 0.8417596111 1.1604201790
H -2.1140639774 1.9469332297 1.2619123719
H -0.5127661844 -1.0365762139 -1.3751811393
H -2.7243214872 -2.1479120840 -1.4654181699
H 2.1181189626 1.9487027095 -1.2579572116
H 4.3456481931 0.8429360795 -1.1527084856
H 4.6458597898 -1.2193514172 0.2002079732
H 2.7201362698 -2.1519008980 1.4624678809
H 0.5091439033 -1.0400600240 1.3686268086
