  11
 
 C         -2.5134095520       -0.2104047576        0.0163699845
 C         -1.1561935272        0.3865241680        0.0676585579
 C         -0.0159450214       -0.2901351151       -0.0768669105
 C          1.2885340951        0.3542108249       -0.0170040343
 O          2.3486469804       -0.2083656608       -0.1333062007
 H         -3.0413814223       -0.0149026204        0.9489125203
 H         -2.4689779541       -1.2826063632       -0.1503156945
 H         -3.0912163541        0.2508769704       -0.7841123031
 H         -1.1187485167        1.4567490508        0.2346724695
 H         -0.0136323462       -1.3583029207       -0.2436778774
 H          1.2403631118        1.4500904239        0.1513673040
          11
        -15.63617183
 C         -2.5179571788       -0.1984378586        0.0000630963
 C         -1.1593907355        0.3975772856       -0.0001372929
 C         -0.0195486288       -0.2948836679       -0.0000540402
 C          1.2864466593        0.3494261485        0.0000724791
 O          2.3460834136       -0.2253500332       -0.0000004981
 H         -3.0705872146        0.1378669350        0.8771975765
 H         -2.4752866757       -1.2840605922        0.0004333474
 H         -3.0710290086        0.1375380070       -0.8768915599
 H         -1.1208303196        1.4808910188       -0.0001348735
 H         -0.0184598145       -1.3762496815       -0.0002232519
 H          1.2394617950        1.4581287377        0.0002911238
