 xtb: 6.7.1 (edcfbbe)
          04112512223D

 16 15  0     0  0            999 V2000
   -1.9774    0.2669   -0.5724 C   0  0  0  0  0  0  0  0  0  0  0  0
   -1.0281    0.2657    0.6312 C   0  0  0  0  0  0  0  0  0  0  0  0
    0.0422   -0.7171    0.5884 N   0  0  0  0  0  0  0  0  0  0  0  0
    1.0567   -0.5213   -0.4391 C   0  0  0  0  0  0  0  0  0  0  0  0
    1.9347    0.6910   -0.1430 C   0  0  0  0  0  0  0  0  0  0  0  0
   -2.4182   -0.7192   -0.7083 H   0  0  0  0  0  0  0  0  0  0  0  0
   -2.7765    0.9847   -0.4101 H   0  0  0  0  0  0  0  0  0  0  0  0
   -1.4522    0.5409   -1.4844 H   0  0  0  0  0  0  0  0  0  0  0  0
   -1.6035    0.0577    1.5379 H   0  0  0  0  0  0  0  0  0  0  0  0
   -0.5760    1.2527    0.7442 H   0  0  0  0  0  0  0  0  0  0  0  0
   -0.3676   -1.6389    0.4760 H   0  0  0  0  0  0  0  0  0  0  0  0
    1.6822   -1.4177   -0.4315 H   0  0  0  0  0  0  0  0  0  0  0  0
    0.6297   -0.4226   -1.4514 H   0  0  0  0  0  0  0  0  0  0  0  0
    2.2878    0.6449    0.8830 H   0  0  0  0  0  0  0  0  0  0  0  0
    2.7897    0.6952   -0.8134 H   0  0  0  0  0  0  0  0  0  0  0  0
    1.3865    1.6187   -0.2828 H   0  0  0  0  0  0  0  0  0  0  0  0
  1  2  1  0  0  0  0
  2  3  1  0  0  0  0
  3  4  1  0  0  0  0
  4  5  1  0  0  0  0
  1  6  1  0  0  0  0
  1  7  1  0  0  0  0
  1  8  1  0  0  0  0
  2  9  1  0  0  0  0
  2 10  1  0  0  0  0
  3 11  1  0  0  0  0
  4 12  1  0  0  0  0
  4 13  1  0  0  0  0
  5 14  1  0  0  0  0
  5 15  1  0  0  0  0
  5 16  1  0  0  0  0
M  END
