 xtb: 6.7.1 (edcfbbe)
          04112512443D

 20 19  0     0  0            999 V2000
   -2.0967    1.0992   -0.4961 C   0  0  0  0  0  0  0  0  0  0  0  0
   -1.5176   -0.0379    0.3418 C   0  0  0  0  0  0  0  0  0  0  0  0
   -2.6188   -0.9756    0.8281 C   0  0  0  0  0  0  0  0  0  0  0  0
   -0.4900   -0.8306   -0.4722 C   0  0  0  0  0  0  0  0  0  0  0  0
    0.6249   -0.0148   -0.8512 O   0  0  0  0  0  0  0  0  0  0  0  0
    1.6526    0.0811   -0.0152 C   0  0  0  0  0  0  0  0  0  0  0  0
    1.7129   -0.5088    1.0446 O   0  0  0  0  0  0  0  0  0  0  0  0
    2.7121    0.9991   -0.5468 C   0  0  0  0  0  0  0  0  0  0  0  0
   -1.3003    1.7292   -0.8845 H   0  0  0  0  0  0  0  0  0  0  0  0
   -2.7617    1.7110    0.1073 H   0  0  0  0  0  0  0  0  0  0  0  0
   -2.6597    0.6969   -1.3348 H   0  0  0  0  0  0  0  0  0  0  0  0
   -0.9972    0.3826    1.2104 H   0  0  0  0  0  0  0  0  0  0  0  0
   -3.1240   -1.4350   -0.0178 H   0  0  0  0  0  0  0  0  0  0  0  0
   -3.3500   -0.4202    1.4086 H   0  0  0  0  0  0  0  0  0  0  0  0
   -2.2051   -1.7614    1.4550 H   0  0  0  0  0  0  0  0  0  0  0  0
   -0.1200   -1.6803    0.1103 H   0  0  0  0  0  0  0  0  0  0  0  0
   -0.9217   -1.1760   -1.4126 H   0  0  0  0  0  0  0  0  0  0  0  0
    2.5529    1.1752   -1.6050 H   0  0  0  0  0  0  0  0  0  0  0  0
    3.6909    0.5663   -0.3632 H   0  0  0  0  0  0  0  0  0  0  0  0
    2.6536    1.9419   -0.0071 H   0  0  0  0  0  0  0  0  0  0  0  0
  1  2  1  0  0  0  0
  2  3  1  0  0  0  0
  2  4  1  0  0  0  0
  4  5  1  0  0  0  0
  5  6  1  0  0  0  0
  6  7  2  0  0  0  0
  6  8  1  0  0  0  0
  1  9  1  0  0  0  0
  1 10  1  0  0  0  0
  1 11  1  0  0  0  0
  2 12  1  0  0  0  0
  3 13  1  0  0  0  0
  3 14  1  0  0  0  0
  3 15  1  0  0  0  0
  4 16  1  0  0  0  0
  4 17  1  0  0  0  0
  8 18  1  0  0  0  0
  8 19  1  0  0  0  0
  8 20  1  0  0  0  0
M  END
