20
 xtb: 6.7.1 (edcfbbe)
C           -2.24373326909822        0.92074139310762        0.72568704867293
C           -1.77099673686839       -0.47598023982239        0.32596992438626
C           -2.81447723251683       -1.18096244996174       -0.54204245279055
C           -0.46428098481391       -0.42609045698406       -0.44417583321479
O            0.55714507841464        0.14622589310340        0.42914586740013
C            1.78533520571227        0.28871360012461       -0.09767182212034
O            2.06562981552828       -0.04517747895869       -1.23918207331479
C            2.74260144547339        0.92304396829696        0.85909285038445
H           -2.40207057921042        1.53888250583264       -0.16623120404035
H           -1.51775530814019        1.42837092387733        1.36758685568515
H           -3.19175738509142        0.86342546476013        1.27003904127660
H           -1.60562905754514       -1.07410876193455        1.23201264528494
H           -2.49575666205357       -2.19313193095115       -0.81221836878483
H           -2.99102926332926       -0.62023507067218       -1.46745586332113
H           -3.76676442896246       -1.25576399415285       -0.00844688250145
H           -0.13751959387904       -1.42666231643117       -0.74510973361293
H           -0.55439264364523        0.20505322646240       -1.33590763661846
H            2.80971336629856        1.98876662746926        0.61225088027676
H            3.73319929319543        0.48446936380026        0.72703210162124
H            2.41190135216385        0.82476676238508        1.89342664484417
