 xtb: 6.7.1 (edcfbbe)
          04112511193D

 14 13  0     0  0            999 V2000
   -1.1695    0.2361   -0.4107 C   0  0  0  0  0  0  0  0  0  0  0  0
   -0.0045    0.6690    0.4933 C   0  0  0  0  0  0  0  0  0  0  0  0
    1.0727   -0.4325    0.5986 C   0  0  0  0  0  0  0  0  0  0  0  0
    1.2428   -1.1983   -0.5659 O   0  0  0  0  0  0  0  0  0  0  0  0
    0.6092    1.8365   -0.0077 O   0  0  0  0  0  0  0  0  0  0  0  0
   -1.6297   -1.0296    0.0125 O   0  0  0  0  0  0  0  0  0  0  0  0
   -0.8022    0.1976   -1.4452 H   0  0  0  0  0  0  0  0  0  0  0  0
   -1.9681    0.9852   -0.3451 H   0  0  0  0  0  0  0  0  0  0  0  0
   -0.3851    0.8505    1.5093 H   0  0  0  0  0  0  0  0  0  0  0  0
    0.8280   -1.0809    1.4471 H   0  0  0  0  0  0  0  0  0  0  0  0
    2.0300    0.0591    0.7835 H   0  0  0  0  0  0  0  0  0  0  0  0
    0.4528   -1.7486   -0.6766 H   0  0  0  0  0  0  0  0  0  0  0  0
   -0.0292    2.5633   -0.0261 H   0  0  0  0  0  0  0  0  0  0  0  0
   -2.4469   -1.2459   -0.4569 H   0  0  0  0  0  0  0  0  0  0  0  0
  1  2  1  0  0  0  0
  2  3  1  0  0  0  0
  3  4  1  0  0  0  0
  2  5  1  0  0  0  0
  1  6  1  0  0  0  0
  1  7  1  0  0  0  0
  1  8  1  0  0  0  0
  2  9  1  0  0  0  0
  3 10  1  0  0  0  0
  3 11  1  0  0  0  0
  4 12  1  0  0  0  0
  5 13  1  0  0  0  0
  6 14  1  0  0  0  0
M  END
