 xtb: 6.7.1 (edcfbbe)
          04112511193D

 14 13  0     0  0            999 V2000
   -1.1813    0.2305   -0.3838 C   0  0  0  0  0  0  0  0  0  0  0  0
    0.0060    0.6709    0.4947 C   0  0  0  0  0  0  0  0  0  0  0  0
    1.0733   -0.4407    0.5973 C   0  0  0  0  0  0  0  0  0  0  0  0
    1.2626   -1.1812   -0.5807 O   0  0  0  0  0  0  0  0  0  0  0  0
    0.6223    1.8224   -0.0407 O   0  0  0  0  0  0  0  0  0  0  0  0
   -1.6817   -1.0380   -0.0319 O   0  0  0  0  0  0  0  0  0  0  0  0
   -0.8325    0.1505   -1.4169 H   0  0  0  0  0  0  0  0  0  0  0  0
   -1.9721    0.9898   -0.3431 H   0  0  0  0  0  0  0  0  0  0  0  0
   -0.3431    0.8843    1.5182 H   0  0  0  0  0  0  0  0  0  0  0  0
    0.8141   -1.1081    1.4278 H   0  0  0  0  0  0  0  0  0  0  0  0
    2.0309    0.0384    0.8110 H   0  0  0  0  0  0  0  0  0  0  0  0
    0.4574   -1.6933   -0.7508 H   0  0  0  0  0  0  0  0  0  0  0  0
   -0.0280    2.5328   -0.1329 H   0  0  0  0  0  0  0  0  0  0  0  0
   -2.1369   -0.9845    0.8195 H   0  0  0  0  0  0  0  0  0  0  0  0
  1  2  1  0  0  0  0
  2  3  1  0  0  0  0
  3  4  1  0  0  0  0
  2  5  1  0  0  0  0
  1  6  1  0  0  0  0
  1  7  1  0  0  0  0
  1  8  1  0  0  0  0
  2  9  1  0  0  0  0
  3 10  1  0  0  0  0
  3 11  1  0  0  0  0
  4 12  1  0  0  0  0
  5 13  1  0  0  0  0
  6 14  1  0  0  0  0
M  END
