  17
 
 C          2.4128357134        0.6896720805       -0.0004371346
 C          2.3849620608       -0.7148220306       -0.0003583501
 C          1.1956137902       -1.3880953337       -0.0002341989
 C         -0.0228780915       -0.6775237685       -0.0002014920
 C          0.0049817224        0.7447428270       -0.0003129793
 C          1.2489750493        1.4064133034       -0.0004057978
 C         -1.2335153366        1.4197148409       -0.0004215351
 C         -2.3914789127        0.6916779541       -0.0004780826
 C         -2.3020965858       -0.7129414507       -0.0005161288
 N         -1.1788590110       -1.3718997400       -0.0003030890
 H          3.3653582870        1.1992272110       -0.0002080401
 H          3.3179992863       -1.2592914208       -0.0000682814
 H          1.1516632761       -2.4659080401       -0.0002000742
 H          1.2629833116        2.4876108450       -0.0004277572
 H         -1.2478128780        2.5015199934       -0.0004912952
 H         -3.3587817677        1.1705039043       -0.0002802933
 H         -3.2023225837       -1.3152118282        0.0000374359
          17
        -25.74576627
 C          2.4089362499        0.6881820590        0.0001216428
 C          2.3831805986       -0.7162807383       -0.0002907084
 C          1.1948385285       -1.3913452539       -0.0001218898
 C         -0.0247204970       -0.6826202038       -0.0001230700
 C          0.0009948740        0.7397230974       -0.0000218035
 C          1.2439979240        1.4032199194        0.0004410102
 C         -1.2384524187        1.4130713771       -0.0002496679
 C         -2.3953418769        0.6832637880       -0.0003169674
 C         -2.3038586650       -0.7212019942        0.0003746893
 N         -1.1797847919       -1.3787150991        0.0002222650
 H          3.3605655609        1.1993610362        0.0006320686
 H          3.3169140976       -1.2595014082       -0.0008540422
 H          1.1528744886       -2.4692311204       -0.0001879294
 H          1.2567514430        2.4843802371        0.0002706610
 H         -1.2544226312        2.4947888103       -0.0003758618
 H         -3.3634353189        1.1605595672       -0.0007697640
 H         -3.2032195482       -1.3248843199        0.0004217187
