  17
 
 C          0.1300000000        2.0980000000       -0.4530000000
 C         -0.5470000000        0.8980000000       -0.2740000000
 C         -1.9320000000        0.8440000000       -0.4460000000
 C         -2.6680000000        1.9720000000       -0.7970000000
 C         -1.9750000000        3.1880000000       -0.9770000000
 C         -0.5810000000        3.2420000000       -0.8040000000
 C         -2.7150000000        4.3240000000       -1.3300000000
 C         -4.0900000000        4.2380000000       -1.4940000000
 C         -4.6800000000        3.0060000000       -1.2960000000
 N         -4.0030000000        1.8860000000       -0.9550000000
 H          1.2070000000        2.1430000000       -0.3220000000
 H          0.0000000000        0.0000000000       -0.0010000000
 H         -2.4390000000       -0.1080000000       -0.3000000000
 H         -0.0420000000        4.1760000000       -0.9410000000
 H         -2.2240000000        5.2820000000       -1.4810000000
 H         -4.6780000000        5.1060000000       -1.7680000000
 H         -5.7520000000        2.8780000000       -1.4110000000
