22
 xtb: 6.7.1 (edcfbbe)
C           -3.23847763323193        0.96457469205053       -0.13195041254144
C           -2.42006239387402        1.06267398838534        0.99305466526523
C           -1.28376919237596        0.26762825902748        1.10128045189409
C           -0.94925737748368       -0.62918389212536        0.08252651656335
C           -1.77173232660792       -0.72271575312128       -1.04052689445668
C           -2.91394997885649        0.06880070375466       -1.14683935812057
C            0.30117051369147       -1.46854998067079        0.18452676178664
N            1.51528496955649       -0.64957360240645        0.08799794291030
C            2.22428836027622       -0.10583713803341        1.13618115571523
C            3.15948125979122        0.71590452001081        0.56348173642303
N            3.03500547472875        0.70333613562204       -0.81271596970932
C            2.02664492350846       -0.12015801635213       -1.05535699945513
H           -4.12637388192043        1.58346765055467       -0.21484253412759
H           -2.67174670692819        1.75650521872180        1.78913689409602
H           -0.64969376327575        0.34366685626423        1.98058720420100
H           -1.51644302306210       -1.41839138992778       -1.83499081654698
H           -3.54806484640238       -0.01414347584156       -2.02408141575688
H            0.34136728649319       -1.99760163509740        1.14055989116964
H            0.32726508304874       -2.21000001003711       -0.61806044853879
H            2.00975448239312       -0.36313624579248        2.16246611973220
H            3.91726049288025        1.30428900687786        1.06130929638735
H            1.63369203957372       -0.37700548071754       -2.03037104381832
