 xtb: 6.7.1 (edcfbbe)
          04112512023D

 17 16  0     0  0            999 V2000
   -2.2162    0.7363   -0.8263 C   0  0  0  0  0  0  0  0  0  0  0  0
   -1.8065    0.5203    0.6255 C   0  0  0  0  0  0  0  0  0  0  0  0
   -0.8877   -0.6994    0.7883 C   0  0  0  0  0  0  0  0  0  0  0  0
    0.3858   -0.5176    0.0059 C   0  0  0  0  0  0  0  0  0  0  0  0
    0.6754   -1.1188   -1.0077 O   0  0  0  0  0  0  0  0  0  0  0  0
    1.1756    0.3979    0.5566 O   0  0  0  0  0  0  0  0  0  0  0  0
    2.4117    0.6895   -0.0992 C   0  0  0  0  0  0  0  0  0  0  0  0
   -2.7091   -0.1495   -1.2199 H   0  0  0  0  0  0  0  0  0  0  0  0
   -2.8992    1.5778   -0.9065 H   0  0  0  0  0  0  0  0  0  0  0  0
   -1.3460    0.9386   -1.4480 H   0  0  0  0  0  0  0  0  0  0  0  0
   -2.6972    0.3599    1.2339 H   0  0  0  0  0  0  0  0  0  0  0  0
   -1.2908    1.4056    1.0003 H   0  0  0  0  0  0  0  0  0  0  0  0
   -1.3849   -1.5981    0.4242 H   0  0  0  0  0  0  0  0  0  0  0  0
   -0.6293   -0.8175    1.8405 H   0  0  0  0  0  0  0  0  0  0  0  0
    3.0030    1.2502    0.6180 H   0  0  0  0  0  0  0  0  0  0  0  0
    2.2241    1.2824   -0.9952 H   0  0  0  0  0  0  0  0  0  0  0  0
    2.9108   -0.2375   -0.3842 H   0  0  0  0  0  0  0  0  0  0  0  0
  1  2  1  0  0  0  0
  2  3  1  0  0  0  0
  3  4  1  0  0  0  0
  4  5  2  0  0  0  0
  4  6  1  0  0  0  0
  6  7  1  0  0  0  0
  1  8  1  0  0  0  0
  1  9  1  0  0  0  0
  1 10  1  0  0  0  0
  2 11  1  0  0  0  0
  2 12  1  0  0  0  0
  3 13  1  0  0  0  0
  3 14  1  0  0  0  0
  7 15  1  0  0  0  0
  7 16  1  0  0  0  0
  7 17  1  0  0  0  0
M  END
