  20
 
 C          0.4750000000        0.8170000000       -0.5530000000
 C          0.5700000000        0.4920000000       -2.0370000000
 H          1.0120000000        1.3450000000       -2.5640000000
 C          1.4090000000       -0.7630000000       -2.2850000000
 C          1.5160000000       -1.1080000000       -3.7660000000
 O          2.3070000000       -2.2800000000       -3.9070000000
 N          2.4740000000       -2.6940000000       -5.2580000000
 O          1.9330000000       -2.0160000000       -6.1340000000
 O          3.1610000000       -3.7110000000       -5.3660000000
 O         -0.7470000000        0.3090000000       -2.5500000000
 N         -1.4200000000        1.5300000000       -2.8270000000
 O         -0.8160000000        2.5810000000       -2.6030000000
 O         -2.5560000000        1.3570000000       -3.2700000000
 H          0.0380000000       -0.0130000000        0.0090000000
 H         -0.1320000000        1.7140000000       -0.3850000000
 H          1.4700000000        1.0300000000       -0.1460000000
 H          2.4160000000       -0.6350000000       -1.8690000000
 H          0.9690000000       -1.6230000000       -1.7620000000
 H          0.5310000000       -1.3030000000       -4.2000000000
 H          1.9970000000       -0.2960000000       -4.3210000000
