  5
 
 C          0.1090000000       -0.0110000000       -0.0650000000
 F         -0.6740000000        0.0930000000       -1.1680000000
 Cl        -0.8930000000        0.0730000000        1.3860000000
 H          0.8260000000        0.8130000000       -0.0610000000
 H          0.6320000000       -0.9690000000       -0.0920000000
