18
CONF1
C -2.5298868741 0.0884813519 0.3034056812
C -1.2664850829 0.7074208065 -0.2836855054
C -0.0000765878 -0.0118949475 0.2013863938
C 1.2662333594 0.7081969409 -0.2829236907
C 2.5297426213 0.0884512299 0.3030865145
O 0.0004592661 -1.3733760858 -0.1878677079
H -2.5542466366 -0.9792799928 0.0986775583
H -2.5526589038 0.2271704855 1.3817737819
H -3.4160850166 0.5488407239 -0.1253206311
H -1.3043354873 0.6559529832 -1.3747114405
H -1.2035953395 1.7582285337 0.0013387070
H -0.0004056156 -0.0454046666 1.2971392539
H 1.3039163953 0.6582607146 -1.3740009074
H 1.2033284893 1.7585498339 0.0036195423
H 2.5527213115 0.2255576854 1.3816483059
H 2.5540134160 -0.9789892173 0.0968160234
H 3.4158319744 0.5493882158 -0.1251907279
H -0.0001434978 -1.4137534627 -1.1547511474
18
CONF8
C -2.5272868711 0.1058945267 0.3134784736
C -1.2635658513 0.6802656663 -0.3156296580
C -0.0011436426 -0.0180328696 0.1994122600
C 1.2652753332 0.6882911674 -0.3064423698
C 2.5451933896 0.1382151360 0.3156387097
O -0.0625305309 -1.3667049854 -0.2354941769
H -3.4093440399 0.5818153841 -0.1063757822
H -2.5804517001 -0.9627581819 0.1221854301
H -2.5236186404 0.2660077833 1.3894020336
H -1.3031474868 0.5491672140 -1.3982004901
H -1.1913526869 1.7462893760 -0.0972504222
H -0.0078606243 0.0076136582 1.3020691293
H 1.3071084528 0.5836509088 -1.3923545681
H 1.1783136079 1.7496108621 -0.0702166985
H 2.4925993822 0.1869168872 1.4014264076
H 2.7155693181 -0.8939667395 0.0187913020
H 3.3992590731 0.7247111214 -0.0127211127
H 0.6954022624 -1.8470102024 0.1211547983
18
CONF5
C -1.7661609466 0.9752543577 -0.3421888428
C -1.0530034089 0.2101996522 0.7687745266
C 0.1335226496 -0.6497000488 0.3015236921
C 1.1974253490 0.1216012289 -0.4907604697
C 1.8635505920 1.2282612508 0.3170644351
O -0.3052656394 -1.7839181834 -0.4305688534
H -2.1230704425 0.3010997690 -1.1173490741
H -2.6276914774 1.4943308772 0.0705887876
H -1.1114880145 1.7152883428 -0.7943260253
H -0.6937131021 0.9105126824 1.5228484615
H -1.7642484019 -0.4627600560 1.2534787137
H 0.6061889332 -1.0818374790 1.1928165426
H 1.9529159621 -0.6024775591 -0.8054552260
H 0.7475495295 0.5403526302 -1.3928699454
H 2.6755920199 1.6684180616 -0.2560728157
H 1.1550757720 2.0142891871 0.5631080314
H 2.2722930794 0.8296150081 1.2426033226
H -0.7164228344 -1.4795435250 -1.2513871724
18
CONF9
C -1.8916250592 1.2248104744 0.2425293658
C -1.1960645384 0.0854773647 -0.4895394981
C -0.1295385873 -0.6195637613 0.3537208728
C 1.0428507001 0.2829692159 0.7674427947
C 1.7709257225 0.9091584774 -0.4173554891
O 0.3171769362 -1.7292118667 -0.4118401155
H -1.2022501875 2.0400455749 0.4438518176
H -2.7060969121 1.6100532039 -0.3650115235
H -2.3018468542 0.8763025763 1.1876800269
H -1.9289720279 -0.6730605224 -0.7726959123
H -0.7343544433 0.4463971336 -1.4084662092
H -0.6118737641 -0.9923748364 1.2746726150
H 0.6683011617 1.0598260173 1.4338983493
H 1.7484290482 -0.3259094452 1.3392502629
H 1.1674314085 1.6846054742 -0.8807785460
H 2.7064582879 1.3552622086 -0.0895616555
H 1.9893235420 0.1493696180 -1.1645139909
H 0.9784623937 -2.2186907145 0.0956259631
18
CONF4
C -2.3114868189 0.3836741295 0.4677875067
C -0.9668151782 0.6958916432 -0.1780356855
C 0.0708415953 -0.3912598437 0.1115251396
C 1.4771807974 0.0054065238 -0.3620803359
C 2.1297402879 1.0674574826 0.5143029703
O -0.3715815692 -1.5690214399 -0.5477559278
H -2.6698299137 -0.5836308382 0.1249655365
H -2.2158661159 0.3541953435 1.5510112268
H -3.0435834299 1.1421626974 0.2036805106
H -1.0884224712 0.7618263666 -1.2606173661
H -0.5956946392 1.6517025871 0.1901206209
H 0.0992329633 -0.5754044217 1.1985924939
H 2.1056861457 -0.8890349304 -0.3547728475
H 1.4134913340 0.3554295590 -1.3941936262
H 2.1654533934 0.7359203648 1.5495928317
H 3.1458484027 1.2534927592 0.1765568378
H 1.5813443425 2.0042976747 0.4721713263
H 0.2405083458 -2.2919279616 -0.3580078789
18
CONF11
C -1.7583611423 0.9209228048 -0.3831071152
C -1.0386529402 0.2339362527 0.7717894100
C 0.1422092268 -0.6382977726 0.3273422122
C 1.2051199700 0.1089864268 -0.4883408946
C 1.8569984685 1.2503608002 0.2820391125
O -0.3996231042 -1.7210702240 -0.4154405248
H -2.6737132625 1.3850250740 -0.0250045287
H -1.1377567588 1.6916861268 -0.8319008935
H -2.0151391332 0.1872969226 -1.1431331069
H -0.6829130993 0.9716405566 1.4907702719
H -1.7418259931 -0.4259433464 1.2840064736
H 0.6213720654 -1.0379173954 1.2391270940
H 1.9779281436 -0.6102807771 -0.7738403100
H 0.7499221085 0.4840435550 -1.4056528726
H 2.2550764106 0.8907273573 1.2283767491
H 2.6745055535 1.6702822592 -0.2984018405
H 1.1429849668 2.0427154726 0.4872800549
H 0.3192766805 -2.2839480881 -0.7312188325
18
CONF3
C -2.0840284102 0.6222931176 -0.6679220418
C -1.3936925886 0.3202119829 0.6589191469
C 0.0366048559 -0.2315643559 0.5249193829
C 0.9630445543 0.7081566345 -0.2577654417
C 2.4240507842 0.2945379134 -0.1205410864
O 0.0470970304 -1.5401925587 -0.0179220568
H -3.0975954698 0.9672639287 -0.4796226652
H -1.5577898247 1.3995536497 -1.2152140533
H -2.1454322912 -0.2678401269 -1.2895136396
H -1.3499525635 1.2287062291 1.2612955475
H -1.9810356879 -0.4188470130 1.2084926743
H 0.4424279031 -0.3639086125 1.5357373045
H 0.6829107152 0.6905438345 -1.3127716425
H 0.8287801469 1.7240959205 0.1156201135
H 2.5453377039 -0.7472454250 -0.4086219071
H 3.0571482404 0.9096767912 -0.7547047054
H 2.7546088796 0.4024809402 0.9099597457
H -0.2832676063 -1.4966169118 -0.9260403155
18
CONF10
C -2.3235261479 0.4291438857 0.4917106561
C -0.9831153626 0.6929523080 -0.1876201400
C 0.0621803390 -0.3916784801 0.1003532975
C 1.4611523540 0.0156656661 -0.3765504176
C 2.1411964521 1.0289598486 0.5340490916
O -0.2477588850 -1.6092566593 -0.5627365474
H -2.1903654395 0.3208024241 1.5661659401
H -3.0009893447 1.2599477740 0.3121650627
H -2.7931380303 -0.4729968076 0.1063392925
H -1.1206974837 0.7558727565 -1.2691690397
H -0.5903519306 1.6479422160 0.1609578287
H 0.1004520759 -0.5766783488 1.1872319602
H 2.0605695995 -0.8957915426 -0.4225359092
H 1.3838549645 0.4095087590 -1.3913724815
H 1.5887114554 1.9643579023 0.5637578164
H 2.2162158983 0.6403763300 1.5469409656
H 3.1435160348 1.2375111338 0.1701145951
H -1.1297500938 -1.8984557519 -0.2943068183
18
CONF2
C -2.1490761469 1.0279834773 0.5439538224
C -1.4711135107 0.0207281432 -0.3766013581
C -0.0673926099 -0.3876297322 0.0957913781
C 0.9689256238 0.7176668697 -0.1395888942
C 2.3201638432 0.3661324460 0.4724369626
O 0.3322732668 -1.6017535718 -0.5203444326
H -2.2053941735 0.6382148830 1.5574753838
H -1.6051669241 1.9684095605 0.5663531809
H -3.1589861220 1.2277569041 0.1953227520
H -2.0781115758 -0.8866648077 -0.4215601655
H -1.4039251663 0.4324822208 -1.3866644235
H -0.1031262870 -0.6304571248 1.1643016435
H 1.0813354385 0.8694434218 -1.2162212565
H 0.6015528271 1.6465080470 0.2957409416
H 2.6550743104 -0.6032866446 0.1106601800
H 3.0642385509 1.1143469113 0.2120668612
H 2.2425036408 0.3150580979 1.5559986806
H 0.3842828132 -1.4590820762 -1.4758789045
18
CONF7
C -2.4251855833 0.2751357876 -0.1385857116
C -0.9656140704 0.6805914842 -0.3064009028
C -0.0366400670 -0.1860880928 0.5481167842
C 1.3845689372 0.3920952625 0.6486479438
C 2.0665729636 0.5417381633 -0.7071047852
O -0.0305246345 -1.4872086447 -0.0169866770
H -2.5461015140 -0.7758105537 -0.3890083284
H -2.7487869182 0.4263456281 0.8890047590
H -3.0602310430 0.8658497588 -0.7933966470
H -0.6780924479 0.5606048851 -1.3509334674
H -0.8338780437 1.7251720332 -0.0220686756
H -0.4549196837 -0.2390846757 1.5682107664
H 1.3291255930 1.3594734092 1.1497771479
H 1.9810366466 -0.2734109953 1.2782423893
H 1.6119976505 1.3427307569 -1.2832186702
H 3.1210158773 0.7697517950 -0.5744100303
H 1.9773878520 -0.3830664472 -1.2724683183
H 0.5035384528 -2.0706515031 0.5375498506
18
CONF17
C -2.5367566302 0.1021263062 0.2831886019
C -1.2636219712 0.6985959977 -0.3058220646
C 0.0000552871 -0.0022619080 0.2129380417
C 1.2636150163 0.6983452284 -0.3064005171
C 2.5367976659 0.1029476551 0.2835832632
O -0.0000328976 -1.3603937943 -0.2208442063
H -3.4101917783 0.6161435652 -0.1091473877
H -2.6104847364 -0.9506236664 0.0222359927
H -2.5376962286 0.1963475546 1.3670796926
H -1.2836279517 0.5997560461 -1.3924049915
H -1.2012318897 1.7586380317 -0.0568947021
H 0.0002861705 0.0400080935 1.3094876893
H 1.2838149359 0.5981181909 -1.3928507454
H 1.2009030886 1.7586836199 -0.0588420213
H 2.6106896847 -0.9501945706 0.0242398435
H 3.4101898787 0.6164865846 -0.1094846450
H 2.5376519909 0.1988158829 1.3673321163
H -0.0008459338 -1.9513252457 0.5390066089
18
CONF13
C -2.0624505027 0.5685380165 -0.6878962597
C -1.3809060815 0.3467451526 0.6574768648
C 0.0388297198 -0.2215374516 0.5324111886
C 0.9651259003 0.6849874497 -0.2898553946
C 2.4404150213 0.3385571034 -0.1127800671
O -0.0754031253 -1.5189379208 -0.0303228373
H -1.5819105953 1.3696824910 -1.2425811894
H -2.0167543724 -0.3445730726 -1.2757672573
H -3.1056587260 0.8330907878 -0.5363382342
H -1.3334541873 1.2828359794 1.2155727169
H -1.9665110575 -0.3685177837 1.2382987563
H 0.4527971748 -0.3117277568 1.5522700212
H 0.6929912508 0.5986128356 -1.3425909987
H 0.7986110053 1.7160840529 0.0245979455
H 2.6588756133 -0.6623873559 -0.4780225144
H 3.0567039968 1.0391452778 -0.6702523147
H 2.7217854454 0.3934457867 0.9368949441
H 0.8073889437 -1.8987799118 -0.1247524785
18
CONF14
C -1.8369745847 0.9646972903 0.7885693249
C -1.1390248940 0.3221090793 -0.4038699517
C 0.0196219363 -0.6074833171 -0.0087337039
C 1.4025407969 0.0226463436 -0.2198093099
C 1.6504789886 1.2445922836 0.6549743752
O -0.1139965470 -1.7830152541 -0.7989718957
H -2.6484566988 1.6005512817 0.4437504111
H -2.2536697409 0.2009507260 1.4410385210
H -1.1457198258 1.5711699309 1.3669745766
H -1.8571863220 -0.2882852539 -0.9552920382
H -0.7736433675 1.0923887378 -1.0843120428
H -0.0890245643 -0.8819504549 1.0535812371
H 2.1623601781 -0.7315625317 0.0033984848
H 1.5008810389 0.2905257063 -1.2742767122
H 0.9768895510 2.0551041027 0.3924752438
H 1.5054182536 0.9961335868 1.7039030080
H 2.6712984396 1.5937306607 0.5218499397
H 0.6087619509 -2.3920773370 -0.5963432383
18
CONF15
C -1.8288198979 0.9850496264 0.7985128782
C -1.1496468125 0.3407793023 -0.4051738809
C 0.0029643155 -0.6055632674 -0.0169386875
C 1.3885490179 0.0135666858 -0.2270135406
C 1.6662527474 1.2155872749 0.6641919989
O -0.0106510146 -1.7930075318 -0.7998952750
H -2.2562578916 0.2255477941 1.4493967474
H -1.1213099902 1.5712818068 1.3776182421
H -2.6295290866 1.6413846692 0.4667176289
H -1.8922279251 -0.2331939793 -0.9645651686
H -0.7731919566 1.1135223248 -1.0769919023
H -0.1004669393 -0.8809379985 1.0450782175
H 2.1248488021 -0.7690214599 -0.0315444488
H 1.4805586240 0.2913181227 -1.2788745140
H 1.5308811808 0.9532294497 1.7109305400
H 2.6912213811 1.5482910911 0.5230494783
H 1.0042033092 2.0421497111 0.4220449789
H -0.8346545947 -2.2723326927 -0.6406275554
18
CONF6
C -1.6559451930 1.2057515964 0.7073289004
C -1.3875299721 0.0375895690 -0.2323027025
C -0.0088829694 -0.6085543982 -0.0409166365
C 1.1603052545 0.3313251567 -0.3939383035
C 1.8152613171 0.9666468357 0.8276448546
O 0.0645373956 -1.8159296251 -0.7876780076
H -0.9905307742 2.0375590149 0.4944106774
H -2.6798760685 1.5500028482 0.5848524467
H -1.5169201307 0.9019964768 1.7420670806
H -2.1385999501 -0.7390034069 -0.0675430765
H -1.4781491417 0.3751852260 -1.2683888370
H 0.0936242557 -0.9385816025 0.9991578871
H 1.9132685428 -0.2620359834 -0.9182422741
H 0.8137525180 1.1109563380 -1.0753303111
H 1.1034684698 1.5623573667 1.3913384777
H 2.2137943715 0.1970298701 1.4846135089
H 2.6347332869 1.6107190637 0.5176215740
H -0.0779176417 -1.6125360579 -1.7226004255
18
CONF16
C -1.8205350550 1.1666733701 0.6586411276
C -1.4430917020 0.0339435687 -0.2878583298
C -0.0410711711 -0.5224999727 -0.0034904009
C 1.0765780966 0.4617240077 -0.3891522400
C 2.0348755385 0.7536410771 0.7587580475
O 0.1930116588 -1.7179429472 -0.7367945456
H -1.1311284759 2.0012950472 0.5641453208
H -2.8226728776 1.5227294697 0.4350557330
H -1.7988409476 0.8204494404 1.6895658942
H -2.1696286389 -0.7754569200 -0.1781251768
H -1.4816287206 0.3752523803 -1.3243404356
H 0.0304534309 -0.7485649994 1.0727298325
H 1.6244415019 0.0101410966 -1.2182983138
H 0.6423845951 1.3948652373 -0.7483383743
H 2.8177253015 1.4327497872 0.4305803416
H 1.5052596377 1.2128629826 1.5904358415
H 2.5001896702 -0.1649814597 1.1081986013
H -0.4775560941 -2.3750780722 -0.5072464114
18
CONF12
C -2.0346957314 0.7336094391 0.7909042735
C -1.0848539056 0.4895471524 -0.3759852176
C 0.0330448385 -0.5175207923 -0.0333875721
C 1.4353519281 0.0478890877 -0.2991150297
C 1.8293983271 1.1262704741 0.7023774684
O -0.1483063368 -1.7495530433 -0.7154060842
H -2.4969109218 -0.1999553419 1.1031654143
H -1.4977472091 1.1533702338 1.6382982943
H -2.8199083739 1.4278825379 0.5013434677
H -1.6560575098 0.0945456242 -1.2188452586
H -0.6458193926 1.4376157657 -0.6892537553
H -0.0370431521 -0.7952804446 1.0243510561
H 2.1468329279 -0.7789590554 -0.2370397439
H 1.4743542611 0.4515698174 -1.3140542560
H 2.8292019383 1.4922790143 0.4837145543
H 1.1405535104 1.9660919336 0.6636358636
H 1.8225696078 0.7242225913 1.7127569935
H -0.0299371615 -1.6022378400 -1.6639965306
18
CONF19
C -1.6185942237 0.6658507880 -0.9651496373
C -1.3801341140 0.3586563061 0.5086647989
C -0.0234187439 -0.2981549488 0.8208340060
C 1.2011179691 0.5776595718 0.4923294147
C 1.7206906350 0.4431856516 -0.9356352345
O 0.1234927553 -1.5454126497 0.1659566640
H -2.6698072856 0.8880036773 -1.1332019688
H -1.0367101056 1.5263967673 -1.2819831817
H -1.3417357238 -0.1898021846 -1.5762841644
H -1.4568363988 1.2737430225 1.0979568045
H -2.1622489669 -0.3214823542 0.8581880118
H -0.0087741110 -0.4695409059 1.9129841165
H 0.9473860041 1.6166131881 0.7061565780
H 2.0071742977 0.2841697244 1.1681011675
H 1.9067369903 -0.6033092494 -1.1606659252
H 1.0128492153 0.8289297198 -1.6609934651
H 2.6529215653 0.9940850573 -1.0350850890
H -0.6155596447 -2.1170340131 0.4113469113
