 xtb: 6.7.1 (edcfbbe)
          04112512013D

 21 21  0     0  0            999 V2000
   -3.2427    1.1830    0.1912 C   0  0  0  0  0  0  0  0  0  0  0  0
   -1.9015    0.7921   -0.3348 C   0  0  0  0  0  0  0  0  0  0  0  0
   -1.6909    0.1927   -1.3659 O   0  0  0  0  0  0  0  0  0  0  0  0
   -0.9237    1.2133    0.4812 O   0  0  0  0  0  0  0  0  0  0  0  0
    0.3931    0.8346    0.2521 C   0  0  0  0  0  0  0  0  0  0  0  0
    1.3418    1.8418    0.1648 C   0  0  0  0  0  0  0  0  0  0  0  0
    2.6719    1.5205   -0.0423 C   0  0  0  0  0  0  0  0  0  0  0  0
    3.0557    0.1956   -0.1817 C   0  0  0  0  0  0  0  0  0  0  0  0
    2.1122   -0.8095   -0.0967 C   0  0  0  0  0  0  0  0  0  0  0  0
    0.7698   -0.5070    0.1323 C   0  0  0  0  0  0  0  0  0  0  0  0
   -0.2197   -1.5976    0.2782 C   0  0  0  0  0  0  0  0  0  0  0  0
   -1.2651   -1.5039    0.8962 O   0  0  0  0  0  0  0  0  0  0  0  0
    0.1551   -2.7208   -0.3093 O   0  0  0  0  0  0  0  0  0  0  0  0
   -3.9597    1.2264   -0.6218 H   0  0  0  0  0  0  0  0  0  0  0  0
   -3.1763    2.1286    0.7191 H   0  0  0  0  0  0  0  0  0  0  0  0
   -3.5474    0.4111    0.8966 H   0  0  0  0  0  0  0  0  0  0  0  0
    1.0191    2.8659    0.2613 H   0  0  0  0  0  0  0  0  0  0  0  0
    3.4053    2.3084   -0.1031 H   0  0  0  0  0  0  0  0  0  0  0  0
    4.0899   -0.0541   -0.3542 H   0  0  0  0  0  0  0  0  0  0  0  0
    2.3970   -1.8448   -0.1940 H   0  0  0  0  0  0  0  0  0  0  0  0
   -0.5020   -3.4358   -0.2004 H   0  0  0  0  0  0  0  0  0  0  0  0
  1  2  1  0  0  0  0
  2  3  2  0  0  0  0
  2  4  1  0  0  0  0
  4  5  1  0  0  0  0
  5  6  4  0  0  0  0
  6  7  4  0  0  0  0
  7  8  4  0  0  0  0
  8  9  4  0  0  0  0
  5 10  4  0  0  0  0
  9 10  4  0  0  0  0
 10 11  1  0  0  0  0
 11 12  2  0  0  0  0
 11 13  1  0  0  0  0
  1 14  1  0  0  0  0
  1 15  1  0  0  0  0
  1 16  1  0  0  0  0
  6 17  1  0  0  0  0
  7 18  1  0  0  0  0
  8 19  1  0  0  0  0
  9 20  1  0  0  0  0
 13 21  1  0  0  0  0
M  END
