 xtb: 6.7.1 (edcfbbe)
          04112511403D

 22 23  0     0  0            999 V2000
   -3.2494    0.8798    0.2668 C   0  0  0  0  0  0  0  0  0  0  0  0
   -3.0120   -0.3076    0.9374 C   0  0  0  0  0  0  0  0  0  0  0  0
   -1.8632   -1.0351    0.6760 C   0  0  0  0  0  0  0  0  0  0  0  0
   -0.9466   -0.5846   -0.2630 C   0  0  0  0  0  0  0  0  0  0  0  0
   -1.1903    0.6086   -0.9323 C   0  0  0  0  0  0  0  0  0  0  0  0
   -2.3356    1.3376   -0.6685 C   0  0  0  0  0  0  0  0  0  0  0  0
    0.3239   -1.3529   -0.5413 C   0  0  0  0  0  0  0  0  0  0  0  0
    1.4794   -0.5699   -0.1736 N   0  0  0  0  0  0  0  0  0  0  0  0
    1.8653   -0.2598    1.0983 C   0  0  0  0  0  0  0  0  0  0  0  0
    2.9551    0.5521    0.9754 C   0  0  0  0  0  0  0  0  0  0  0  0
    3.2414    0.7512   -0.3405 N   0  0  0  0  0  0  0  0  0  0  0  0
    2.3355    0.0708   -0.9955 C   0  0  0  0  0  0  0  0  0  0  0  0
   -4.1431    1.4487    0.4725 H   0  0  0  0  0  0  0  0  0  0  0  0
   -3.7201   -0.6670    1.6686 H   0  0  0  0  0  0  0  0  0  0  0  0
   -1.6812   -1.9599    1.2038 H   0  0  0  0  0  0  0  0  0  0  0  0
   -0.4753    0.9691   -1.6579 H   0  0  0  0  0  0  0  0  0  0  0  0
   -2.5154    2.2636   -1.1931 H   0  0  0  0  0  0  0  0  0  0  0  0
    0.3312   -2.2867    0.0269 H   0  0  0  0  0  0  0  0  0  0  0  0
    0.4014   -1.5836   -1.6068 H   0  0  0  0  0  0  0  0  0  0  0  0
    1.3478   -0.6316    1.9575 H   0  0  0  0  0  0  0  0  0  0  0  0
    3.5529    1.0037    1.7414 H   0  0  0  0  0  0  0  0  0  0  0  0
    2.2803    0.0111   -2.0641 H   0  0  0  0  0  0  0  0  0  0  0  0
  1  2  4  0  0  0  0
  2  3  4  0  0  0  0
  3  4  4  0  0  0  0
  4  5  4  0  0  0  0
  1  6  4  0  0  0  0
  5  6  4  0  0  0  0
  4  7  1  0  0  0  0
  7  8  1  0  0  0  0
  8  9  4  0  0  0  0
  9 10  2  0  0  0  0
 10 11  4  0  0  0  0
  8 12  4  0  0  0  0
 11 12  2  0  0  0  0
  1 13  1  0  0  0  0
  2 14  1  0  0  0  0
  3 15  1  0  0  0  0
  5 16  1  0  0  0  0
  6 17  1  0  0  0  0
  7 18  1  0  0  0  0
  7 19  1  0  0  0  0
  9 20  1  0  0  0  0
 10 21  1  0  0  0  0
 12 22  1  0  0  0  0
M  END
