  16
 
 C         -2.0380000000        0.0800000000        3.9170000000
 C         -2.1480000000        0.3170000000        2.4250000000
 O         -0.8530000000        0.2360000000        1.8470000000
 C         -0.8940000000        0.4510000000        0.4420000000
 C          0.5140000000        0.3530000000       -0.1150000000
 O          1.3270000000        1.3430000000        0.5020000000
 H         -3.0210000000        0.1360000000        4.3940000000
 H         -1.6010000000       -0.9020000000        4.1210000000
 H         -1.3800000000        0.8240000000        4.3770000000
 H         -2.5640000000        1.3080000000        2.2230000000
 H         -2.7880000000       -0.4410000000        1.9630000000
 H         -1.5460000000       -0.3090000000        0.0000000000
 H         -1.3090000000        1.4460000000        0.2590000000
 H          0.5240000000        0.5280000000       -1.1960000000
 H          0.9440000000       -0.6290000000        0.1030000000
 H          2.2150000000        1.2510000000        0.1230000000
