  26
 
 C          0.7900000000       -0.3890000000        0.6490000000
 C          1.6170000000       -1.4420000000       -0.0700000000
 C          2.2940000000       -0.8690000000       -1.3150000000
 C          3.1240000000       -1.9290000000       -2.0350000000
 C          3.8010000000       -1.3660000000       -3.2760000000
 O          4.5540000000       -2.3990000000       -3.8970000000
 C          5.2280000000       -2.0460000000       -5.0370000000
 O          5.2290000000       -0.9340000000       -5.5460000000
 C          5.9730000000       -3.2480000000       -5.5680000000
 C          6.7460000000       -2.9270000000       -6.8350000000
 H          0.3090000000       -0.8080000000        1.5390000000
 H          1.4140000000        0.4550000000        0.9610000000
 H          0.0060000000       -0.0060000000       -0.0110000000
 H          0.9680000000       -2.2800000000       -0.3510000000
 H          2.3750000000       -1.8350000000        0.6180000000
 H          1.5320000000       -0.4720000000       -1.9980000000
 H          2.9390000000       -0.0290000000       -1.0280000000
 H          2.4900000000       -2.7780000000       -2.3210000000
 H          3.8850000000       -2.3390000000       -1.3590000000
 H          4.4810000000       -0.5490000000       -3.0130000000
 H          3.0600000000       -0.9970000000       -3.9920000000
 H          6.6700000000       -3.5920000000       -4.7960000000
 H          5.2480000000       -4.0410000000       -5.7770000000
 H          7.2790000000       -3.8090000000       -7.2050000000
 H          6.0650000000       -2.5850000000       -7.6210000000
 H          7.4860000000       -2.1400000000       -6.6570000000
