 xtb: 6.7.1 (edcfbbe)
          04112512143D

 21 20  0     0  0            999 V2000
    2.5390   -0.1195   -0.7627 C   0  0  0  0  0  0  0  0  0  0  0  0
    1.3253   -0.1763    0.1611 C   0  0  0  0  0  0  0  0  0  0  0  0
    1.4102   -1.0668    0.8053 H   0  0  0  0  0  0  0  0  0  0  0  0
    0.0277   -0.2843   -0.6546 C   0  0  0  0  0  0  0  0  0  0  0  0
   -1.2492   -0.3430    0.2006 C   0  0  0  0  0  0  0  0  0  0  0  0
   -1.8468    1.0512    0.3958 C   0  0  0  0  0  0  0  0  0  0  0  0
   -2.2872   -1.2607   -0.4450 C   0  0  0  0  0  0  0  0  0  0  0  0
    1.3698    0.9858    0.9764 O   0  0  0  0  0  0  0  0  0  0  0  0
    2.4732    0.7609   -1.3962 H   0  0  0  0  0  0  0  0  0  0  0  0
    3.4469   -0.0488   -0.1700 H   0  0  0  0  0  0  0  0  0  0  0  0
    2.5827   -1.0089   -1.3832 H   0  0  0  0  0  0  0  0  0  0  0  0
   -0.0294    0.5661   -1.3360 H   0  0  0  0  0  0  0  0  0  0  0  0
    0.1063   -1.1911   -1.2557 H   0  0  0  0  0  0  0  0  0  0  0  0
   -0.9955   -0.7629    1.1818 H   0  0  0  0  0  0  0  0  0  0  0  0
   -2.2519    1.4144   -0.5467 H   0  0  0  0  0  0  0  0  0  0  0  0
   -1.0949    1.7596    0.7329 H   0  0  0  0  0  0  0  0  0  0  0  0
   -2.6533    1.0242    1.1253 H   0  0  0  0  0  0  0  0  0  0  0  0
   -1.9105   -2.2782   -0.5188 H   0  0  0  0  0  0  0  0  0  0  0  0
   -3.2000   -1.2747    0.1462 H   0  0  0  0  0  0  0  0  0  0  0  0
   -2.5312   -0.9089   -1.4449 H   0  0  0  0  0  0  0  0  0  0  0  0
    0.7338    0.8910    1.6966 H   0  0  0  0  0  0  0  0  0  0  0  0
  1  2  1  0  0  0  0
  2  3  1  0  0  0  0
  2  4  1  0  0  0  0
  4  5  1  0  0  0  0
  5  6  1  0  0  0  0
  5  7  1  0  0  0  0
  2  8  1  0  0  0  0
  1  9  1  0  0  0  0
  1 10  1  0  0  0  0
  1 11  1  0  0  0  0
  4 12  1  0  0  0  0
  4 13  1  0  0  0  0
  5 14  1  0  0  0  0
  6 15  1  0  0  0  0
  6 16  1  0  0  0  0
  6 17  1  0  0  0  0
  7 18  1  0  0  0  0
  7 19  1  0  0  0  0
  7 20  1  0  0  0  0
  8 21  1  0  0  0  0
M  END
