 xtb: 6.7.1 (edcfbbe)
          04112512223D

 16 15  0     0  0            999 V2000
   -2.3852    0.1348   -0.1403 C   0  0  0  0  0  0  0  0  0  0  0  0
   -0.9577    0.3754    0.3342 C   0  0  0  0  0  0  0  0  0  0  0  0
   -0.0706   -0.6326   -0.2215 N   0  0  0  0  0  0  0  0  0  0  0  0
    1.2988   -0.5839    0.2551 C   0  0  0  0  0  0  0  0  0  0  0  0
    2.1133    0.6401   -0.1794 C   0  0  0  0  0  0  0  0  0  0  0  0
   -2.4515    0.2531   -1.2194 H   0  0  0  0  0  0  0  0  0  0  0  0
   -2.6950   -0.8738    0.1164 H   0  0  0  0  0  0  0  0  0  0  0  0
   -3.0597    0.8448    0.3299 H   0  0  0  0  0  0  0  0  0  0  0  0
   -0.9107    0.2826    1.4238 H   0  0  0  0  0  0  0  0  0  0  0  0
   -0.6587    1.4052    0.0720 H   0  0  0  0  0  0  0  0  0  0  0  0
   -0.0804   -0.5671   -1.2352 H   0  0  0  0  0  0  0  0  0  0  0  0
    1.2673   -0.6334    1.3474 H   0  0  0  0  0  0  0  0  0  0  0  0
    1.7923   -1.4893   -0.1098 H   0  0  0  0  0  0  0  0  0  0  0  0
    3.1357    0.5475    0.1758 H   0  0  0  0  0  0  0  0  0  0  0  0
    2.1286    0.7183   -1.2650 H   0  0  0  0  0  0  0  0  0  0  0  0
    1.6895    1.5543    0.2295 H   0  0  0  0  0  0  0  0  0  0  0  0
  1  2  1  0  0  0  0
  2  3  1  0  0  0  0
  3  4  1  0  0  0  0
  4  5  1  0  0  0  0
  1  6  1  0  0  0  0
  1  7  1  0  0  0  0
  1  8  1  0  0  0  0
  2  9  1  0  0  0  0
  2 10  1  0  0  0  0
  3 11  1  0  0  0  0
  4 12  1  0  0  0  0
  4 13  1  0  0  0  0
  5 14  1  0  0  0  0
  5 15  1  0  0  0  0
  5 16  1  0  0  0  0
M  END
