  17
 
 C          3.0050000000       -1.5810000000       -2.2990000000
 N          1.9290000000       -1.0140000000       -1.5220000000
 C          1.8850000000       -1.0360000000       -0.1120000000
 C          2.9210000000       -1.6310000000        0.6080000000
 C          2.8780000000       -1.6520000000        2.0020000000
 C          1.8000000000       -1.0790000000        2.6760000000
 C          0.7640000000       -0.4840000000        1.9550000000
 C          0.8070000000       -0.4630000000        0.5610000000
 H          2.8130000000       -1.4400000000       -3.3660000000
 H          3.0940000000       -2.6520000000       -2.0960000000
 H          3.9520000000       -1.0970000000       -2.0450000000
 H          1.1620000000       -0.5740000000       -2.0180000000
 H          3.7670000000       -2.0800000000        0.0930000000
 H          3.6850000000       -2.1140000000        2.5640000000
 H          1.7660000000       -1.0950000000        3.7610000000
 H         -0.0750000000       -0.0370000000        2.4790000000
 H         -0.0060000000        0.0030000000        0.0090000000
