  8
 
 C          0.7510402724       -0.0012469519       -1.1415430151
 C         -0.3593047409       -0.0001825895       -0.1088699547
 Cl        -0.2606532809        1.4351673243        0.9273782774
 Cl        -1.9200292591        0.0204467414       -0.9690353781
 Cl        -0.2856242377       -1.4541971598        0.9031788738
 Cl         2.3349495285       -0.0176983508       -0.3381754820
 H          0.6930197967        0.8989158687       -1.7548653814
 H          0.6802959806       -0.8923140760       -1.7666176470
           8
        -23.49290772
 C          0.7010845452        0.0007954404       -1.1673373365
 C         -0.3712754273       -0.0003246369       -0.0954696452
 Cl        -1.9634007266        0.0013233718       -0.8980710341
 Cl        -0.2483621389       -1.4462292070        0.9234876274
 Cl        -0.2480009727        1.4441160590        0.9260961122
 Cl         2.3131658707        0.0005529265       -0.4222810346
 H          0.6130721487        0.8971615198       -1.7825953212
 H          0.6132404092       -0.8944408032       -1.7845003954
