 xtb: 6.7.1 (edcfbbe)
          04112512013D

 14 13  0     0  0            999 V2000
    1.7917   -0.4228   -0.5534 C   0  0  0  0  0  0  0  0  0  0  0  0
    1.0463   -0.1172    0.6076 O   0  0  0  0  0  0  0  0  0  0  0  0
    0.0495    0.8643    0.4306 C   0  0  0  0  0  0  0  0  0  0  0  0
   -1.1244    0.4585   -0.4693 C   0  0  0  0  0  0  0  0  0  0  0  0
   -1.7540   -0.7639    0.0044 N   0  0  0  0  0  0  0  0  0  0  0  0
    2.6112   -1.0556   -0.2211 H   0  0  0  0  0  0  0  0  0  0  0  0
    2.1903    0.4901   -1.0100 H   0  0  0  0  0  0  0  0  0  0  0  0
    1.1884   -0.9646   -1.2860 H   0  0  0  0  0  0  0  0  0  0  0  0
   -0.3158    1.0618    1.4418 H   0  0  0  0  0  0  0  0  0  0  0  0
    0.4975    1.7850    0.0259 H   0  0  0  0  0  0  0  0  0  0  0  0
   -1.8085    1.3242   -0.5025 H   0  0  0  0  0  0  0  0  0  0  0  0
   -0.7691    0.2755   -1.4871 H   0  0  0  0  0  0  0  0  0  0  0  0
   -2.5906   -0.9517   -0.5356 H   0  0  0  0  0  0  0  0  0  0  0  0
   -2.0243   -0.6583    0.9761 H   0  0  0  0  0  0  0  0  0  0  0  0
  1  2  1  0  0  0  0
  2  3  1  0  0  0  0
  3  4  1  0  0  0  0
  4  5  1  0  0  0  0
  1  6  1  0  0  0  0
  1  7  1  0  0  0  0
  1  8  1  0  0  0  0
  3  9  1  0  0  0  0
  3 10  1  0  0  0  0
  4 11  1  0  0  0  0
  4 12  1  0  0  0  0
  5 13  1  0  0  0  0
  5 14  1  0  0  0  0
M  END
