21
 xtb: 6.7.1 (edcfbbe)
C            2.09047987041027       -0.42827735642092        1.26277867922533
C            1.37019268971353       -0.46656557178635       -0.08505230115999
C            0.30525017176990        0.62372020414543       -0.24913322712332
H            0.56547882060429        1.46324974208497        0.41662856885493
C           -1.14191568192486        0.20838691090576        0.07345678364488
C           -1.68755449245615       -0.86442206774910       -0.86981400739439
C           -1.29487908172272       -0.22694572295219        1.53086225109430
O            0.39088756273054        1.09038444979310       -1.62042203722926
H            2.85843333832686       -1.20672244173642        1.30868213513783
H            1.40886500040091       -0.58539636946110        2.10253034880960
H            2.58486381287928        0.53798398859513        1.40962179436061
H            2.11272807048088       -0.32091054613219       -0.87773240328803
H            0.93176086788208       -1.45727236124342       -0.24987714301977
H           -1.74714519901994        1.11727274367413       -0.06823776343848
H           -1.60373819427386       -0.56494729521298       -1.91852870368914
H           -1.16159621923727       -1.81668306365797       -0.74280640198401
H           -2.74620858903912       -1.04476471171386       -0.65637810451651
H           -2.35376646371281       -0.36372439593475        1.77350481861004
H           -0.88378654903315        0.51641875650829        2.22253579305915
H           -0.78916846139082       -1.18162177890502        1.71259421862153
H           -0.35075998092770        1.69364369319295       -1.76405360894831
