 17

C     -0.871000     0.547000     0.373000
C     -0.882000     0.551000     1.892000
C     -2.071000     1.298000     2.450000
O     -2.938000     1.844000     1.781000
O     -2.016000     1.261000     3.814000
C     -3.083000     1.932000     4.493000
C     -2.869000     1.795000     5.981000
H     -0.003000     0.002000    -0.012000
H     -1.776000     0.067000    -0.013000
H     -0.829000     1.567000    -0.022000
H      0.031000     1.031000     2.260000
H     -0.918000    -0.481000     2.257000
H     -3.074000     2.979000     4.191000
H     -4.023000     1.470000     4.189000
H     -3.669000     2.298000     6.531000
H     -2.845000     0.741000     6.277000
H     -1.909000     2.231000     6.278000
