 xtb: 6.7.1 (edcfbbe)
          04112511193D

 23 23  0     0  0            999 V2000
   -0.1841    2.8082    0.0331 C   0  0  0  0  0  0  0  0  0  0  0  0
   -0.3409    1.3771    0.2400 N   0  0  0  0  0  0  0  0  0  0  0  0
   -1.4069    0.8439   -0.5825 C   0  0  0  0  0  0  0  0  0  0  0  0
   -1.8049   -0.5626   -0.1750 C   0  0  0  0  0  0  0  0  0  0  0  0
   -0.9260   -1.5100   -0.5474 F   0  0  0  0  0  0  0  0  0  0  0  0
   -1.9920   -0.7147    1.1421 F   0  0  0  0  0  0  0  0  0  0  0  0
   -2.9734   -0.9148   -0.7569 F   0  0  0  0  0  0  0  0  0  0  0  0
    0.8846    0.6378    0.1598 C   0  0  0  0  0  0  0  0  0  0  0  0
    1.1536   -0.2868    1.1612 C   0  0  0  0  0  0  0  0  0  0  0  0
    2.3265   -1.0196    1.1338 C   0  0  0  0  0  0  0  0  0  0  0  0
    3.2430   -0.8285    0.1134 C   0  0  0  0  0  0  0  0  0  0  0  0
    2.9820    0.0977   -0.8815 C   0  0  0  0  0  0  0  0  0  0  0  0
    1.8070    0.8279   -0.8625 C   0  0  0  0  0  0  0  0  0  0  0  0
    0.6778    3.1420    0.6042 H   0  0  0  0  0  0  0  0  0  0  0  0
   -1.0737    3.3082    0.4131 H   0  0  0  0  0  0  0  0  0  0  0  0
   -0.0476    3.0846   -1.0193 H   0  0  0  0  0  0  0  0  0  0  0  0
   -2.2941    1.4693   -0.4478 H   0  0  0  0  0  0  0  0  0  0  0  0
   -1.1609    0.7966   -1.6588 H   0  0  0  0  0  0  0  0  0  0  0  0
    0.4371   -0.4241    1.9562 H   0  0  0  0  0  0  0  0  0  0  0  0
    2.5264   -1.7380    1.9141 H   0  0  0  0  0  0  0  0  0  0  0  0
    4.1589   -1.3989    0.0946 H   0  0  0  0  0  0  0  0  0  0  0  0
    3.6936    0.2508   -1.6789 H   0  0  0  0  0  0  0  0  0  0  0  0
    1.6106    1.5452   -1.6452 H   0  0  0  0  0  0  0  0  0  0  0  0
  1  2  1  0  0  0  0
  2  3  1  0  0  0  0
  3  4  1  0  0  0  0
  4  5  1  0  0  0  0
  4  6  1  0  0  0  0
  4  7  1  0  0  0  0
  2  8  1  0  0  0  0
  8  9  4  0  0  0  0
  9 10  4  0  0  0  0
 10 11  4  0  0  0  0
 11 12  4  0  0  0  0
  8 13  4  0  0  0  0
 12 13  4  0  0  0  0
  1 14  1  0  0  0  0
  1 15  1  0  0  0  0
  1 16  1  0  0  0  0
  3 17  1  0  0  0  0
  3 18  1  0  0  0  0
  9 19  1  0  0  0  0
 10 20  1  0  0  0  0
 11 21  1  0  0  0  0
 12 22  1  0  0  0  0
 13 23  1  0  0  0  0
M  END
