 xtb: 6.7.1 (edcfbbe)
          04112511323D

 21 20  0     0  0            999 V2000
   -2.5651   -0.4298   -0.6955 C   0  0  0  0  0  0  0  0  0  0  0  0
   -1.6807    0.7152   -0.2108 C   0  0  0  0  0  0  0  0  0  0  0  0
   -0.5810    0.2748    0.7636 C   0  0  0  0  0  0  0  0  0  0  0  0
    0.8010   -0.0555    0.1619 C   0  0  0  0  0  0  0  0  0  0  0  0
    1.4426    1.1745   -0.4835 C   0  0  0  0  0  0  0  0  0  0  0  0
    0.7397   -1.2077   -0.8445 C   0  0  0  0  0  0  0  0  0  0  0  0
    1.6753   -0.4093    1.2377 O   0  0  0  0  0  0  0  0  0  0  0  0
   -3.3523   -0.0439   -1.3395 H   0  0  0  0  0  0  0  0  0  0  0  0
   -3.0328   -0.9312    0.1490 H   0  0  0  0  0  0  0  0  0  0  0  0
   -1.9960   -1.1635   -1.2575 H   0  0  0  0  0  0  0  0  0  0  0  0
   -1.2418    1.2242   -1.0686 H   0  0  0  0  0  0  0  0  0  0  0  0
   -2.3184    1.4396    0.3003 H   0  0  0  0  0  0  0  0  0  0  0  0
   -0.4109    1.0675    1.4964 H   0  0  0  0  0  0  0  0  0  0  0  0
   -0.9323   -0.6020    1.3145 H   0  0  0  0  0  0  0  0  0  0  0  0
    0.8868    1.4920   -1.3590 H   0  0  0  0  0  0  0  0  0  0  0  0
    2.4594    0.9305   -0.7794 H   0  0  0  0  0  0  0  0  0  0  0  0
    1.4814    1.9893    0.2343 H   0  0  0  0  0  0  0  0  0  0  0  0
    1.7519   -1.5036   -1.1123 H   0  0  0  0  0  0  0  0  0  0  0  0
    0.2209   -0.8983   -1.7458 H   0  0  0  0  0  0  0  0  0  0  0  0
    0.2284   -2.0667   -0.4151 H   0  0  0  0  0  0  0  0  0  0  0  0
    1.3436   -1.2111    1.6634 H   0  0  0  0  0  0  0  0  0  0  0  0
  1  2  1  0  0  0  0
  2  3  1  0  0  0  0
  3  4  1  0  0  0  0
  4  5  1  0  0  0  0
  4  6  1  0  0  0  0
  4  7  1  0  0  0  0
  1  8  1  0  0  0  0
  1  9  1  0  0  0  0
  1 10  1  0  0  0  0
  2 11  1  0  0  0  0
  2 12  1  0  0  0  0
  3 13  1  0  0  0  0
  3 14  1  0  0  0  0
  5 15  1  0  0  0  0
  5 16  1  0  0  0  0
  5 17  1  0  0  0  0
  6 18  1  0  0  0  0
  6 19  1  0  0  0  0
  6 20  1  0  0  0  0
  7 21  1  0  0  0  0
M  END
