 xtb: 6.7.1 (edcfbbe)
          04112510563D

 24 24  0     0  0            999 V2000
    2.7644    0.3263   -1.4479 C   0  0  0  0  0  0  0  0  0  0  0  0
    2.2127    0.9914   -0.1884 C   0  0  0  0  0  0  0  0  0  0  0  0
    1.3282    0.1052    0.7065 C   0  0  0  0  0  0  0  0  0  0  0  0
    1.3735    0.5341    1.7158 H   0  0  0  0  0  0  0  0  0  0  0  0
    1.8554   -1.3320    0.7991 C   0  0  0  0  0  0  0  0  0  0  0  0
   -0.1363    0.0722    0.3266 C   0  0  0  0  0  0  0  0  0  0  0  0
   -1.0558   -0.3055    1.3025 C   0  0  0  0  0  0  0  0  0  0  0  0
   -2.4072   -0.3839    1.0253 C   0  0  0  0  0  0  0  0  0  0  0  0
   -2.8728   -0.0806   -0.2434 C   0  0  0  0  0  0  0  0  0  0  0  0
   -1.9731    0.3046   -1.2201 C   0  0  0  0  0  0  0  0  0  0  0  0
   -0.6186    0.3806   -0.9379 C   0  0  0  0  0  0  0  0  0  0  0  0
    1.9815   -0.1431   -2.0366 H   0  0  0  0  0  0  0  0  0  0  0  0
    3.2564    1.0736   -2.0671 H   0  0  0  0  0  0  0  0  0  0  0  0
    3.4979   -0.4338   -1.1933 H   0  0  0  0  0  0  0  0  0  0  0  0
    3.0642    1.3280    0.4082 H   0  0  0  0  0  0  0  0  0  0  0  0
    1.6428    1.8819   -0.4628 H   0  0  0  0  0  0  0  0  0  0  0  0
    1.2914   -1.8905    1.5422 H   0  0  0  0  0  0  0  0  0  0  0  0
    1.7525   -1.8415   -0.1550 H   0  0  0  0  0  0  0  0  0  0  0  0
    2.9031   -1.3313    1.0898 H   0  0  0  0  0  0  0  0  0  0  0  0
   -0.7046   -0.5357    2.2988 H   0  0  0  0  0  0  0  0  0  0  0  0
   -3.0997   -0.6778    1.8006 H   0  0  0  0  0  0  0  0  0  0  0  0
   -3.9279   -0.1396   -0.4655 H   0  0  0  0  0  0  0  0  0  0  0  0
   -2.3250    0.5496   -2.2117 H   0  0  0  0  0  0  0  0  0  0  0  0
    0.0536    0.6940   -1.7197 H   0  0  0  0  0  0  0  0  0  0  0  0
  1  2  1  0  0  0  0
  2  3  1  0  0  0  0
  3  4  1  0  0  0  0
  3  5  1  0  0  0  0
  3  6  1  0  0  0  0
  6  7  4  0  0  0  0
  7  8  4  0  0  0  0
  8  9  4  0  0  0  0
  9 10  4  0  0  0  0
  6 11  4  0  0  0  0
 10 11  4  0  0  0  0
  1 12  1  0  0  0  0
  1 13  1  0  0  0  0
  1 14  1  0  0  0  0
  2 15  1  0  0  0  0
  2 16  1  0  0  0  0
  5 17  1  0  0  0  0
  5 18  1  0  0  0  0
  5 19  1  0  0  0  0
  7 20  1  0  0  0  0
  8 21  1  0  0  0  0
  9 22  1  0  0  0  0
 10 23  1  0  0  0  0
 11 24  1  0  0  0  0
M  END
