 xtb: 6.7.1 (edcfbbe)
          04112512233D

 20 19  0     0  0            999 V2000
   -2.3611   -0.1292   -1.2425 C   0  0  0  0  0  0  0  0  0  0  0  0
   -1.9485    0.1387    0.2029 C   0  0  0  0  0  0  0  0  0  0  0  0
   -1.9256   -1.1546    1.0142 C   0  0  0  0  0  0  0  0  0  0  0  0
   -0.5848    0.8290    0.2515 C   0  0  0  0  0  0  0  0  0  0  0  0
    0.4078   -0.0308   -0.3226 O   0  0  0  0  0  0  0  0  0  0  0  0
    1.6751    0.1649    0.0129 C   0  0  0  0  0  0  0  0  0  0  0  0
    2.0369    1.0346    0.7803 O   0  0  0  0  0  0  0  0  0  0  0  0
    2.5855   -0.8094   -0.6735 C   0  0  0  0  0  0  0  0  0  0  0  0
   -1.6321   -0.7762   -1.7229 H   0  0  0  0  0  0  0  0  0  0  0  0
   -2.4215    0.8010   -1.8017 H   0  0  0  0  0  0  0  0  0  0  0  0
   -3.3324   -0.6147   -1.2716 H   0  0  0  0  0  0  0  0  0  0  0  0
   -2.6635    0.8317    0.6575 H   0  0  0  0  0  0  0  0  0  0  0  0
   -1.6347   -0.9569    2.0433 H   0  0  0  0  0  0  0  0  0  0  0  0
   -1.2154   -1.8543    0.5810 H   0  0  0  0  0  0  0  0  0  0  0  0
   -2.9096   -1.6150    1.0149 H   0  0  0  0  0  0  0  0  0  0  0  0
   -0.5990    1.7622   -0.3214 H   0  0  0  0  0  0  0  0  0  0  0  0
   -0.2900    1.0617    1.2805 H   0  0  0  0  0  0  0  0  0  0  0  0
    2.5944   -0.5905   -1.7383 H   0  0  0  0  0  0  0  0  0  0  0  0
    2.2085   -1.8186   -0.5379 H   0  0  0  0  0  0  0  0  0  0  0  0
    3.5883   -0.7165   -0.2703 H   0  0  0  0  0  0  0  0  0  0  0  0
  1  2  1  0  0  0  0
  2  3  1  0  0  0  0
  2  4  1  0  0  0  0
  4  5  1  0  0  0  0
  5  6  1  0  0  0  0
  6  7  2  0  0  0  0
  6  8  1  0  0  0  0
  1  9  1  0  0  0  0
  1 10  1  0  0  0  0
  1 11  1  0  0  0  0
  2 12  1  0  0  0  0
  3 13  1  0  0  0  0
  3 14  1  0  0  0  0
  3 15  1  0  0  0  0
  4 16  1  0  0  0  0
  4 17  1  0  0  0  0
  8 18  1  0  0  0  0
  8 19  1  0  0  0  0
  8 20  1  0  0  0  0
M  END
