 xtb: 6.7.1 (edcfbbe)
          04112511533D

 17 16  0     0  0            999 V2000
    2.1199   -0.3114   -0.5817 C   0  0  0  0  0  0  0  0  0  0  0  0
    1.3636    0.4934    0.4696 C   0  0  0  0  0  0  0  0  0  0  0  0
   -0.0500   -0.0295    0.7285 C   0  0  0  0  0  0  0  0  0  0  0  0
   -0.9954    0.1593   -0.4565 C   0  0  0  0  0  0  0  0  0  0  0  0
   -2.4169   -0.2724   -0.1148 C   0  0  0  0  0  0  0  0  0  0  0  0
    3.1412    0.0512   -0.6705 H   0  0  0  0  0  0  0  0  0  0  0  0
    1.6445   -0.2258   -1.5551 H   0  0  0  0  0  0  0  0  0  0  0  0
    2.1517   -1.3627   -0.3040 H   0  0  0  0  0  0  0  0  0  0  0  0
    1.9232    0.4600    1.4074 H   0  0  0  0  0  0  0  0  0  0  0  0
    1.3082    1.5383    0.1556 H   0  0  0  0  0  0  0  0  0  0  0  0
   -0.4644    0.4977    1.5917 H   0  0  0  0  0  0  0  0  0  0  0  0
    0.0000   -1.0907    0.9839 H   0  0  0  0  0  0  0  0  0  0  0  0
   -0.9968    1.2116   -0.7503 H   0  0  0  0  0  0  0  0  0  0  0  0
   -0.6413   -0.4245   -1.3075 H   0  0  0  0  0  0  0  0  0  0  0  0
   -2.8052    0.3146    0.7147 H   0  0  0  0  0  0  0  0  0  0  0  0
   -2.4371   -1.3219    0.1707 H   0  0  0  0  0  0  0  0  0  0  0  0
   -3.0744   -0.1360   -0.9700 H   0  0  0  0  0  0  0  0  0  0  0  0
  1  2  1  0  0  0  0
  2  3  1  0  0  0  0
  3  4  1  0  0  0  0
  4  5  1  0  0  0  0
  1  6  1  0  0  0  0
  1  7  1  0  0  0  0
  1  8  1  0  0  0  0
  2  9  1  0  0  0  0
  2 10  1  0  0  0  0
  3 11  1  0  0  0  0
  3 12  1  0  0  0  0
  4 13  1  0  0  0  0
  4 14  1  0  0  0  0
  5 15  1  0  0  0  0
  5 16  1  0  0  0  0
  5 17  1  0  0  0  0
M  END
