 xtb: 6.7.1 (edcfbbe)
          04112512353D

 17 16  0     0  0            999 V2000
   -2.5749   -0.0419    1.0467 C   0  0  0  0  0  0  0  0  0  0  0  0
   -2.1564    0.5343   -0.3010 C   0  0  0  0  0  0  0  0  0  0  0  0
   -0.8461   -0.0649   -0.7905 C   0  0  0  0  0  0  0  0  0  0  0  0
    0.2069    0.3678    0.0836 O   0  0  0  0  0  0  0  0  0  0  0  0
    1.4281   -0.0961   -0.1433 C   0  0  0  0  0  0  0  0  0  0  0  0
    1.6892   -0.8554   -1.0553 O   0  0  0  0  0  0  0  0  0  0  0  0
    2.4156    0.4175    0.8606 C   0  0  0  0  0  0  0  0  0  0  0  0
   -2.7288   -1.1158    0.9706 H   0  0  0  0  0  0  0  0  0  0  0  0
   -1.8041    0.1458    1.7895 H   0  0  0  0  0  0  0  0  0  0  0  0
   -3.5003    0.4178    1.3815 H   0  0  0  0  0  0  0  0  0  0  0  0
   -2.0328    1.6145   -0.2181 H   0  0  0  0  0  0  0  0  0  0  0  0
   -2.9210    0.3295   -1.0502 H   0  0  0  0  0  0  0  0  0  0  0  0
   -0.8760   -1.1597   -0.7853 H   0  0  0  0  0  0  0  0  0  0  0  0
   -0.6070    0.2643   -1.8073 H   0  0  0  0  0  0  0  0  0  0  0  0
    2.5373   -0.3346    1.6374 H   0  0  0  0  0  0  0  0  0  0  0  0
    2.0470    1.3350    1.3064 H   0  0  0  0  0  0  0  0  0  0  0  0
    3.3769    0.5700    0.3800 H   0  0  0  0  0  0  0  0  0  0  0  0
  1  2  1  0  0  0  0
  2  3  1  0  0  0  0
  3  4  1  0  0  0  0
  4  5  1  0  0  0  0
  5  6  2  0  0  0  0
  5  7  1  0  0  0  0
  1  8  1  0  0  0  0
  1  9  1  0  0  0  0
  1 10  1  0  0  0  0
  2 11  1  0  0  0  0
  2 12  1  0  0  0  0
  3 13  1  0  0  0  0
  3 14  1  0  0  0  0
  7 15  1  0  0  0  0
  7 16  1  0  0  0  0
  7 17  1  0  0  0  0
M  END
