 xtb: 6.7.1 (edcfbbe)
          04112512213D

 14 13  0     0  0            999 V2000
   -2.7626    0.3037   -0.0056 C   0  0  0  0  0  0  0  0  0  0  0  0
   -1.3462    0.0382    0.4871 C   0  0  0  0  0  0  0  0  0  0  0  0
   -0.3357    0.1103   -0.6683 C   0  0  0  0  0  0  0  0  0  0  0  0
    1.0433   -0.1664   -0.1404 C   0  0  0  0  0  0  0  0  0  0  0  0
    1.6026   -1.2424   -0.1893 O   0  0  0  0  0  0  0  0  0  0  0  0
    1.5917    0.8944    0.4295 O   0  0  0  0  0  0  0  0  0  0  0  0
   -2.8314    1.2923   -0.4520 H   0  0  0  0  0  0  0  0  0  0  0  0
   -3.4632    0.2489    0.8232 H   0  0  0  0  0  0  0  0  0  0  0  0
   -3.0517   -0.4329   -0.7509 H   0  0  0  0  0  0  0  0  0  0  0  0
   -1.0736    0.7767    1.2432 H   0  0  0  0  0  0  0  0  0  0  0  0
   -1.2930   -0.9520    0.9446 H   0  0  0  0  0  0  0  0  0  0  0  0
   -0.5810   -0.6356   -1.4236 H   0  0  0  0  0  0  0  0  0  0  0  0
   -0.3543    1.1087   -1.1043 H   0  0  0  0  0  0  0  0  0  0  0  0
    2.4741    0.7108    0.8061 H   0  0  0  0  0  0  0  0  0  0  0  0
  1  2  1  0  0  0  0
  2  3  1  0  0  0  0
  3  4  1  0  0  0  0
  4  5  2  0  0  0  0
  4  6  1  0  0  0  0
  1  7  1  0  0  0  0
  1  8  1  0  0  0  0
  1  9  1  0  0  0  0
  2 10  1  0  0  0  0
  2 11  1  0  0  0  0
  3 12  1  0  0  0  0
  3 13  1  0  0  0  0
  6 14  1  0  0  0  0
M  END
