 xtb: 6.7.1 (edcfbbe)
          04112511513D

 19 19  0     0  0            999 V2000
    2.0091   -2.4483    0.6000 C   0  0  0  0  0  0  0  0  0  0  0  0
    0.8900   -1.8414   -0.0429 O   0  0  0  0  0  0  0  0  0  0  0  0
    0.6701   -0.5091   -0.0028 C   0  0  0  0  0  0  0  0  0  0  0  0
    1.6398    0.4973    0.0537 C   0  0  0  0  0  0  0  0  0  0  0  0
    1.2770    1.8357    0.0801 C   0  0  0  0  0  0  0  0  0  0  0  0
   -0.0485    2.2138    0.0278 C   0  0  0  0  0  0  0  0  0  0  0  0
   -1.0261    1.2352   -0.0414 C   0  0  0  0  0  0  0  0  0  0  0  0
   -0.6903   -0.1194   -0.0532 C   0  0  0  0  0  0  0  0  0  0  0  0
   -1.7772   -1.1494   -0.0579 C   0  0  0  0  0  0  0  0  0  0  0  0
   -2.8052   -0.9985    0.5663 O   0  0  0  0  0  0  0  0  0  0  0  0
   -1.6004   -2.2410   -0.7830 O   0  0  0  0  0  0  0  0  0  0  0  0
   -2.6787    1.7271   -0.1486 Cl  0  0  0  0  0  0  0  0  0  0  0  0
    3.3469    0.1626    0.0246 Cl  0  0  0  0  0  0  0  0  0  0  0  0
    1.6855   -3.4644    0.8188 H   0  0  0  0  0  0  0  0  0  0  0  0
    2.2606   -1.9375    1.5279 H   0  0  0  0  0  0  0  0  0  0  0  0
    2.8738   -2.4747   -0.0631 H   0  0  0  0  0  0  0  0  0  0  0  0
    2.0503    2.5853    0.1248 H   0  0  0  0  0  0  0  0  0  0  0  0
   -0.3290    3.2524    0.0325 H   0  0  0  0  0  0  0  0  0  0  0  0
   -0.7124   -2.3179   -1.1828 H   0  0  0  0  0  0  0  0  0  0  0  0
  1  2  1  0  0  0  0
  2  3  1  0  0  0  0
  3  4  4  0  0  0  0
  4  5  4  0  0  0  0
  5  6  4  0  0  0  0
  6  7  4  0  0  0  0
  3  8  4  0  0  0  0
  7  8  4  0  0  0  0
  8  9  1  0  0  0  0
  9 10  2  0  0  0  0
  9 11  1  0  0  0  0
  7 12  1  0  0  0  0
  4 13  1  0  0  0  0
  1 14  1  0  0  0  0
  1 15  1  0  0  0  0
  1 16  1  0  0  0  0
  5 17  1  0  0  0  0
  6 18  1  0  0  0  0
 11 19  1  0  0  0  0
M  END
