14
 xtb: 6.7.1 (edcfbbe)
C            0.96955110768783        1.50834308456003        0.09095687648034
C            0.97054538648400        0.07625748407736       -0.40586709831173
C            1.38659497754633       -0.95191497377909        0.62721347578264
O           -0.33827097414410       -0.27980266121033       -1.02051737169283
C           -1.44743315315648       -0.30752190952712       -0.28596768705335
O           -1.55072278246420       -0.06497062099980        0.90075305535313
H            2.00426840913289        1.79909640335364        0.29840905301959
H            0.57538112221667        2.18386535054763       -0.67393915722159
H            0.38886227416729        1.62449158970529        1.00830415592997
H            1.62772746574986       -0.00207640228324       -1.27562208364547
H            0.81078626382555       -0.86321924768951        1.55075363466113
H            2.44335022970053       -0.79128730650105        0.86319390761918
H            1.27913109370999       -1.96575049726433        0.23049592103144
H           -2.29709697094770       -0.59356774422982       -0.92524188900736
