 xtb: 6.7.1 (edcfbbe)
          04112512143D

 21 20  0     0  0            999 V2000
    1.7935    0.5618   -1.0868 C   0  0  0  0  0  0  0  0  0  0  0  0
    1.0673   -0.1814    0.0306 C   0  0  0  0  0  0  0  0  0  0  0  0
    0.6837   -1.1325   -0.3664 H   0  0  0  0  0  0  0  0  0  0  0  0
   -0.0916    0.6441    0.6231 C   0  0  0  0  0  0  0  0  0  0  0  0
   -1.5018    0.2812    0.1314 C   0  0  0  0  0  0  0  0  0  0  0  0
   -1.6448    0.4083   -1.3833 C   0  0  0  0  0  0  0  0  0  0  0  0
   -1.9311   -1.1107    0.5947 C   0  0  0  0  0  0  0  0  0  0  0  0
    2.0515   -0.4721    1.0172 O   0  0  0  0  0  0  0  0  0  0  0  0
    1.1075    0.8170   -1.8865 H   0  0  0  0  0  0  0  0  0  0  0  0
    2.2367    1.4698   -0.6855 H   0  0  0  0  0  0  0  0  0  0  0  0
    2.5916   -0.0619   -1.4814 H   0  0  0  0  0  0  0  0  0  0  0  0
   -0.0739    0.5237    1.7095 H   0  0  0  0  0  0  0  0  0  0  0  0
    0.0929    1.7004    0.4185 H   0  0  0  0  0  0  0  0  0  0  0  0
   -2.1822    1.0069    0.5932 H   0  0  0  0  0  0  0  0  0  0  0  0
   -2.6811    0.2510   -1.6738 H   0  0  0  0  0  0  0  0  0  0  0  0
   -1.0341   -0.3314   -1.8944 H   0  0  0  0  0  0  0  0  0  0  0  0
   -1.3447    1.3996   -1.7140 H   0  0  0  0  0  0  0  0  0  0  0  0
   -1.8615   -1.1935    1.6768 H   0  0  0  0  0  0  0  0  0  0  0  0
   -2.9620   -1.2983    0.3042 H   0  0  0  0  0  0  0  0  0  0  0  0
   -1.3111   -1.8831    0.1466 H   0  0  0  0  0  0  0  0  0  0  0  0
    1.6601   -1.0186    1.7109 H   0  0  0  0  0  0  0  0  0  0  0  0
  1  2  1  0  0  0  0
  2  3  1  0  0  0  0
  2  4  1  0  0  0  0
  4  5  1  0  0  0  0
  5  6  1  0  0  0  0
  5  7  1  0  0  0  0
  2  8  1  0  0  0  0
  1  9  1  0  0  0  0
  1 10  1  0  0  0  0
  1 11  1  0  0  0  0
  4 12  1  0  0  0  0
  4 13  1  0  0  0  0
  5 14  1  0  0  0  0
  6 15  1  0  0  0  0
  6 16  1  0  0  0  0
  6 17  1  0  0  0  0
  7 18  1  0  0  0  0
  7 19  1  0  0  0  0
  7 20  1  0  0  0  0
  8 21  1  0  0  0  0
M  END
