20
CONF1
C -2.5715506672 -0.1518311128 -0.2646254469
C -1.2550993480 -0.6749966073 0.3054744219
C 0.0000671497 0.0328520611 -0.2256223777
C -0.0006453059 1.5206267530 0.1298483799
C 1.2555299498 -0.6739965977 0.3061182751
C 2.5717171530 -0.1513911082 -0.2651238063
H -2.7678401373 0.8805648464 0.0401085911
H -2.5634557698 -0.1823427724 -1.3603330309
H -3.4142988427 -0.7603143732 0.0795091740
H -1.1694435727 -1.7455160464 0.0783854238
H -1.2684707852 -0.5902327315 1.4013259567
H 0.0003900231 -0.0597427062 -1.3230391344
H 0.8800368761 2.0319924962 -0.2701201691
H -0.0022840203 1.6527022383 1.2195881542
H -0.8802575324 2.0317680789 -0.2727383039
H 1.2692000725 -0.5877463278 1.4018468008
H 1.1700554632 -1.7448429300 0.0805069887
H 2.7677821040 0.8815872031 0.0377829802
H 2.5633815215 -0.1838022001 -1.3607767810
H 3.4147383425 -0.7590351012 0.0798617186
20
CONF2
C -2.1037368735 -1.1554600038 -0.3503390340
C -1.4947945264 0.0786035717 0.3134292382
C -0.0858887232 0.4474887531 -0.1751970478
C 0.3686523606 1.7437362610 0.4993745686
C 0.9124601159 -0.6942550155 0.0586444278
C 2.3357519439 -0.3916286105 -0.4084406833
H -3.1508841900 -1.2774814596 -0.0551389351
H -2.0733587383 -1.0691904443 -1.4429238984
H -1.5778463247 -2.0739212261 -0.0729571660
H -1.4619471737 -0.0668075076 1.4027863498
H -2.1538046605 0.9386277194 0.1372196466
H -0.1424651439 0.6259038545 -1.2605611050
H -0.3831261784 2.5309564128 0.3756524638
H 1.3090508241 2.1168213961 0.0834751148
H 0.5155706837 1.5861461046 1.5753976838
H 0.9194616709 -0.9413767325 1.1305601613
H 0.5583417575 -1.5902719286 -0.4641788879
H 2.8053397551 0.3954303046 0.1892552215
H 2.3423106471 -0.0655490333 -1.4552476819
H 2.9678194312 -1.2822878315 -0.3330259548
20
CONF4
C -1.8189971262 -1.2649994234 -0.2576467582
C -1.2189976285 -0.0646564229 0.4693910735
C -0.1404710307 0.6838057104 -0.3271673319
C 0.3603608441 1.8901088986 0.4701834334
C 1.0200730667 -0.2205584375 -0.7786358869
C 1.7605027884 -0.9361790729 0.3504803314
H -2.6464045642 -1.6962871482 0.3153383493
H -2.2088990815 -0.9746516620 -1.2402195837
H -1.0791750602 -2.0565582700 -0.4137270406
H -0.8009170956 -0.3873136742 1.4321842218
H -2.0185256001 0.6477099160 0.7101990890
H -0.6170975022 1.0634866438 -1.2433934477
H -0.4610137566 2.5812089938 0.6892517974
H 1.1276806847 2.4431217165 -0.0831015130
H 0.7935772656 1.5817040472 1.4282891511
H 0.6405866477 -0.9679552466 -1.4860096367
H 1.7326322811 0.3960222504 -1.3417973649
H 1.1015345634 -1.6163160972 0.9001782103
H 2.1866664288 -0.2295227718 1.0701953304
H 2.5862421866 -1.5331471707 -0.0504463838
20
CONF6
C -1.8648001745 -1.2170297834 -0.1703479499
C -1.2066089514 -0.0171484297 0.5053961833
C -0.1306816853 0.6750516488 -0.3439945250
C 0.4251601335 1.8921067883 0.3984629913
C 0.9904922000 -0.2766319702 -0.7981119908
C 1.7516622171 -0.9668686932 0.3326198083
H -2.2654938763 -0.9433056122 -1.1535122825
H -1.1575464188 -2.0398815698 -0.3165771751
H -2.6946713032 -1.6001617215 0.4326632512
H -0.7695547440 -0.3270812580 1.4640892157
H -1.9759030927 0.7266803166 0.7502871634
H -0.6233358115 1.0378389951 -1.2586079439
H 1.1966641667 2.4004520303 -0.1907578029
H 0.8696367807 1.6047999488 1.3580744386
H -0.3694562843 2.6163708951 0.6094159432
H 0.5664253648 -1.0404229558 -1.4612101647
H 1.6981972284 0.2976455856 -1.4099782426
H 1.0932578964 -1.5974075147 0.9392677928
H 2.2308144137 -0.2438798342 1.0011104786
H 2.5397430267 -1.6102641622 -0.0722099234
20
CONF3
C -2.1116765410 -0.5604456221 0.6722932144
C -1.3881202994 -0.3523528229 -0.6577535113
C 0.0311740422 0.2325297287 -0.5469280937
C 0.0177753644 1.6373574928 0.0622457437
C 0.9772240294 -0.7092025470 0.2117624378
C 2.4473592253 -0.3013808510 0.1389884501
H -1.5822494584 -1.2703745052 1.3158856291
H -2.2201392156 0.3782325809 1.2254479563
H -3.1173556293 -0.9591609224 0.5031918788
H -1.9890524138 0.3143459446 -1.2900703899
H -1.3292137935 -1.3126618342 -1.1868213596
H 0.4153678000 0.3190974161 -1.5744885683
H -0.7186443188 2.2743587201 -0.4407186004
H 0.9928974559 2.1252895339 -0.0300392366
H -0.2361954981 1.6066232776 1.1280310627
H 0.6704770312 -0.7626879434 1.2644554616
H 0.8649814660 -1.7222135117 -0.1976624208
H 2.6268134363 0.6582801729 0.6336702849
H 2.7777284957 -0.2081424937 -0.9020696286
H 3.0859127082 -1.0454646198 0.6263305258
