21
 xtb: 6.7.1 (edcfbbe)
C            1.82031617396233       -1.06647159739401        0.47442103076794
C            1.30005441467975        0.32969307932411        0.81609438510854
C            0.17606137178036        0.89196806473350       -0.05220589834079
H           -0.06056958651119        1.88616953873451        0.36207765552814
C           -1.16346934060065        0.12981947108604       -0.10271049779954
C           -1.15469518884745       -1.17567618344934       -0.90196255502613
C           -1.71318645323315       -0.09318289886582        1.30598092393111
O            0.72074767641474        1.07386118628077       -1.38017967503131
H            1.12111784836933       -1.84900514506970        0.77908256281090
H            2.76410053803909       -1.25090553866703        0.99790490380456
H            2.01033817861291       -1.17817659082285       -0.59768308730509
H            0.96639076866688        0.35519090105656        1.85947906613526
H            2.12729965312248        1.04757538087344        0.74742089266972
H           -1.85216678121189        0.81469731940035       -0.62166654343311
H           -2.18530394030808       -1.50663727605687       -1.07068986609806
H           -0.68331060217186       -1.05066835891273       -1.88161661750931
H           -0.63640934256589       -1.97918232082207       -0.37299259189146
H           -2.74311741610775       -0.46213220940408        1.26131893625974
H           -1.71334974967113        0.83416300008513        1.88984760902678
H           -1.11717007840842       -0.83640372078446        1.84742905514793
H           -0.00193322606709        1.36712806887694       -1.95070887287000
