 xtb: 6.7.1 (edcfbbe)
          04112514293D

 35 35  0     0  0            999 V2000
   -0.3502   -2.6925   -0.1424 C   0  0  0  0  0  0  0  0  0  0  0  0
    0.4750   -1.4508   -0.0281 C   0  0  0  0  0  0  0  0  0  0  0  0
    1.8449   -1.4106   -0.3322 C   0  0  0  0  0  0  0  0  0  0  0  0
    2.5608   -0.3081   -0.2068 N   0  0  0  0  0  0  0  0  0  0  0  0
    1.9509    0.8088    0.2206 C   0  0  0  0  0  0  0  0  0  0  0  0
    0.6337    0.8833    0.4948 N   0  0  0  0  0  0  0  0  0  0  0  0
   -0.0581   -0.2280    0.3590 C   0  0  0  0  0  0  0  0  0  0  0  0
   -1.4062   -0.1062    0.6828 O   0  0  0  0  0  0  0  0  0  0  0  0
   -2.2823   -0.1139   -0.3636 C   0  0  0  0  0  0  0  0  0  0  0  0
   -1.9155   -0.2360   -1.5234 O   0  0  0  0  0  0  0  0  0  0  0  0
   -3.5505    0.0207    0.0263 N   0  0  0  0  0  0  0  0  0  0  0  0
   -4.6125    0.0207   -0.9575 C   0  0  0  0  0  0  0  0  0  0  0  0
   -3.9674    0.1722    1.4037 C   0  0  0  0  0  0  0  0  0  0  0  0
    2.6895    1.9114    0.3778 N   0  0  0  0  0  0  0  0  0  0  0  0
    4.1028    1.9285    0.0868 C   0  0  0  0  0  0  0  0  0  0  0  0
    2.1190    3.1619    0.8142 C   0  0  0  0  0  0  0  0  0  0  0  0
    2.5682   -2.6239   -0.8172 C   0  0  0  0  0  0  0  0  0  0  0  0
    0.2179   -3.5617    0.1779 H   0  0  0  0  0  0  0  0  0  0  0  0
   -1.2447   -2.6075    0.4716 H   0  0  0  0  0  0  0  0  0  0  0  0
   -0.6621   -2.8394   -1.1774 H   0  0  0  0  0  0  0  0  0  0  0  0
   -5.3027   -0.7977   -0.7528 H   0  0  0  0  0  0  0  0  0  0  0  0
   -4.1723   -0.1087   -1.9432 H   0  0  0  0  0  0  0  0  0  0  0  0
   -5.1512    0.9676   -0.9192 H   0  0  0  0  0  0  0  0  0  0  0  0
   -4.5712    1.0749    1.4972 H   0  0  0  0  0  0  0  0  0  0  0  0
   -3.0966    0.2513    2.0464 H   0  0  0  0  0  0  0  0  0  0  0  0
   -4.5655   -0.6899    1.7025 H   0  0  0  0  0  0  0  0  0  0  0  0
    4.3076    2.6424   -0.7129 H   0  0  0  0  0  0  0  0  0  0  0  0
    4.4089    0.9346   -0.2228 H   0  0  0  0  0  0  0  0  0  0  0  0
    4.6571    2.2259    0.9782 H   0  0  0  0  0  0  0  0  0  0  0  0
    1.0593    3.0197    1.0000 H   0  0  0  0  0  0  0  0  0  0  0  0
    2.2568    3.9219    0.0428 H   0  0  0  0  0  0  0  0  0  0  0  0
    2.6128    3.4920    1.7297 H   0  0  0  0  0  0  0  0  0  0  0  0
    2.5779   -3.3865   -0.0410 H   0  0  0  0  0  0  0  0  0  0  0  0
    2.0656   -3.0319   -1.6908 H   0  0  0  0  0  0  0  0  0  0  0  0
    3.5888   -2.3562   -1.0698 H   0  0  0  0  0  0  0  0  0  0  0  0
  1  2  1  0  0  0  0
  2  3  4  0  0  0  0
  3  4  4  0  0  0  0
  4  5  4  0  0  0  0
  5  6  4  0  0  0  0
  2  7  4  0  0  0  0
  6  7  4  0  0  0  0
  7  8  1  0  0  0  0
  8  9  1  0  0  0  0
  9 10  2  0  0  0  0
  9 11  4  0  0  0  0
 11 12  1  0  0  0  0
 11 13  1  0  0  0  0
  5 14  4  0  0  0  0
 14 15  1  0  0  0  0
 14 16  1  0  0  0  0
  3 17  1  0  0  0  0
  1 18  1  0  0  0  0
  1 19  1  0  0  0  0
  1 20  1  0  0  0  0
 12 21  1  0  0  0  0
 12 22  1  0  0  0  0
 12 23  1  0  0  0  0
 13 24  1  0  0  0  0
 13 25  1  0  0  0  0
 13 26  1  0  0  0  0
 15 27  1  0  0  0  0
 15 28  1  0  0  0  0
 15 29  1  0  0  0  0
 16 30  1  0  0  0  0
 16 31  1  0  0  0  0
 16 32  1  0  0  0  0
 17 33  1  0  0  0  0
 17 34  1  0  0  0  0
 17 35  1  0  0  0  0
M  END
