 20

C      0.145000     0.097000     1.082000
C      1.277000    -0.826000     1.563000
O      0.748000    -2.165000     1.438000
C      1.659000    -3.180000     1.841000
O      1.662000    -0.524000     2.916000
C      0.638000    -0.653000     3.892000
O      2.400000    -0.680000     0.666000
C      3.214000     0.463000     0.889000
H      0.434000     1.152000     1.132000
H     -0.130000    -0.135000     0.047000
H     -0.758000    -0.026000     1.689000
H      1.187000    -4.155000     1.717000
H      1.935000    -3.021000     2.884000
H      2.548000    -3.120000     1.212000
H      1.042000    -0.402000     4.873000
H      0.265000    -1.679000     3.888000
H     -0.172000     0.033000     3.643000
H      4.026000     0.473000     0.161000
H      3.615000     0.428000     1.903000
H      2.602000     1.358000     0.767000
