  20
 
 C          0.1450000000        0.0970000000        1.0820000000
 C          1.2770000000       -0.8260000000        1.5630000000
 O          0.7480000000       -2.1650000000        1.4380000000
 C          1.6590000000       -3.1800000000        1.8410000000
 O          1.6620000000       -0.5240000000        2.9160000000
 C          0.6380000000       -0.6530000000        3.8920000000
 O          2.4000000000       -0.6800000000        0.6660000000
 C          3.2140000000        0.4630000000        0.8890000000
 H          0.4340000000        1.1520000000        1.1320000000
 H         -0.1300000000       -0.1350000000        0.0470000000
 H         -0.7580000000       -0.0260000000        1.6890000000
 H          1.1870000000       -4.1550000000        1.7170000000
 H          1.9350000000       -3.0210000000        2.8840000000
 H          2.5480000000       -3.1200000000        1.2120000000
 H          1.0420000000       -0.4020000000        4.8730000000
 H          0.2650000000       -1.6790000000        3.8880000000
 H         -0.1720000000        0.0330000000        3.6430000000
 H          4.0260000000        0.4730000000        0.1610000000
 H          3.6150000000        0.4280000000        1.9030000000
 H          2.6020000000        1.3580000000        0.7670000000
