 xtb: 6.7.1 (edcfbbe)
          04112512383D

 25 25  0     0  0            999 V2000
    3.2730   -0.9647    0.0659 C   0  0  0  0  0  0  0  0  0  0  0  0
    2.0167   -0.2474    0.4605 C   0  0  0  0  0  0  0  0  0  0  0  0
    1.5193   -0.3385    1.6839 C   0  0  0  0  0  0  0  0  0  0  0  0
    1.3853    0.5665   -0.6465 C   0  0  0  0  0  0  0  0  0  0  0  0
    2.1988    0.9489   -1.2720 H   0  0  0  0  0  0  0  0  0  0  0  0
    0.4863   -0.3148   -1.5288 C   0  0  0  0  0  0  0  0  0  0  0  0
   -0.6902   -0.8618   -0.7295 C   0  0  0  0  0  0  0  0  0  0  0  0
   -1.4114    0.2421   -0.0139 C   0  0  0  0  0  0  0  0  0  0  0  0
   -0.8182    1.4165    0.2559 C   0  0  0  0  0  0  0  0  0  0  0  0
    0.5696    1.7613   -0.1403 C   0  0  0  0  0  0  0  0  0  0  0  0
   -2.7797    0.0089    0.3993 C   0  0  0  0  0  0  0  0  0  0  0  0
   -3.4206   -1.0079    0.1967 O   0  0  0  0  0  0  0  0  0  0  0  0
    3.6274   -1.6029    0.8705 H   0  0  0  0  0  0  0  0  0  0  0  0
    3.1017   -1.5776   -0.8171 H   0  0  0  0  0  0  0  0  0  0  0  0
    4.0536   -0.2448   -0.1772 H   0  0  0  0  0  0  0  0  0  0  0  0
    0.6205    0.1687    1.9891 H   0  0  0  0  0  0  0  0  0  0  0  0
    1.9963   -0.9411    2.4391 H   0  0  0  0  0  0  0  0  0  0  0  0
    0.1095    0.2892   -2.3560 H   0  0  0  0  0  0  0  0  0  0  0  0
    1.0600   -1.1415   -1.9480 H   0  0  0  0  0  0  0  0  0  0  0  0
   -1.3966   -1.3855   -1.3769 H   0  0  0  0  0  0  0  0  0  0  0  0
   -0.3361   -1.5841    0.0121 H   0  0  0  0  0  0  0  0  0  0  0  0
   -1.3754    2.1890    0.7703 H   0  0  0  0  0  0  0  0  0  0  0  0
    0.5028    2.5144   -0.9323 H   0  0  0  0  0  0  0  0  0  0  0  0
    1.0812    2.2388    0.6984 H   0  0  0  0  0  0  0  0  0  0  0  0
   -3.2495    0.8529    0.9406 H   0  0  0  0  0  0  0  0  0  0  0  0
  1  2  1  0  0  0  0
  2  3  2  0  0  0  0
  2  4  1  0  0  0  0
  4  5  1  0  0  0  0
  4  6  1  0  0  0  0
  6  7  1  0  0  0  0
  7  8  1  0  0  0  0
  8  9  2  0  0  0  0
  4 10  1  0  0  0  0
  9 10  1  0  0  0  0
  8 11  1  0  0  0  0
 11 12  2  0  0  0  0
  1 13  1  0  0  0  0
  1 14  1  0  0  0  0
  1 15  1  0  0  0  0
  3 16  1  0  0  0  0
  3 17  1  0  0  0  0
  6 18  1  0  0  0  0
  6 19  1  0  0  0  0
  7 20  1  0  0  0  0
  7 21  1  0  0  0  0
  9 22  1  0  0  0  0
 10 23  1  0  0  0  0
 10 24  1  0  0  0  0
 11 25  1  0  0  0  0
M  END
