 xtb: 6.7.1 (edcfbbe)
          04112511203D

 21 20  0     0  0            999 V2000
   -2.4783    0.9991   -0.3124 C   0  0  0  0  0  0  0  0  0  0  0  0
   -1.7213   -0.0616    0.4802 C   0  0  0  0  0  0  0  0  0  0  0  0
   -0.6002   -0.7389   -0.3199 C   0  0  0  0  0  0  0  0  0  0  0  0
    0.8106   -0.1866   -0.0466 C   0  0  0  0  0  0  0  0  0  0  0  0
    0.9292    1.3030   -0.3849 C   0  0  0  0  0  0  0  0  0  0  0  0
    1.8275   -0.9804   -0.8792 C   0  0  0  0  0  0  0  0  0  0  0  0
    1.0559   -0.3948    1.3429 O   0  0  0  0  0  0  0  0  0  0  0  0
   -1.8189    1.7947   -0.6456 H   0  0  0  0  0  0  0  0  0  0  0  0
   -3.2603    1.4379    0.3032 H   0  0  0  0  0  0  0  0  0  0  0  0
   -2.9445    0.5517   -1.1877 H   0  0  0  0  0  0  0  0  0  0  0  0
   -1.2956    0.3734    1.3856 H   0  0  0  0  0  0  0  0  0  0  0  0
   -2.4358   -0.8237    0.7977 H   0  0  0  0  0  0  0  0  0  0  0  0
   -0.5717   -1.7985   -0.0592 H   0  0  0  0  0  0  0  0  0  0  0  0
   -0.8069   -0.6605   -1.3874 H   0  0  0  0  0  0  0  0  0  0  0  0
    0.6167    1.4801   -1.4096 H   0  0  0  0  0  0  0  0  0  0  0  0
    1.9615    1.6310   -0.2768 H   0  0  0  0  0  0  0  0  0  0  0  0
    0.3104    1.8920    0.2862 H   0  0  0  0  0  0  0  0  0  0  0  0
    1.6050   -0.8817   -1.9375 H   0  0  0  0  0  0  0  0  0  0  0  0
    1.7892   -2.0328   -0.6079 H   0  0  0  0  0  0  0  0  0  0  0  0
    2.8359   -0.6127   -0.7009 H   0  0  0  0  0  0  0  0  0  0  0  0
    1.9412   -0.0709    1.5550 H   0  0  0  0  0  0  0  0  0  0  0  0
  1  2  1  0  0  0  0
  2  3  1  0  0  0  0
  3  4  1  0  0  0  0
  4  5  1  0  0  0  0
  4  6  1  0  0  0  0
  4  7  1  0  0  0  0
  1  8  1  0  0  0  0
  1  9  1  0  0  0  0
  1 10  1  0  0  0  0
  2 11  1  0  0  0  0
  2 12  1  0  0  0  0
  3 13  1  0  0  0  0
  3 14  1  0  0  0  0
  5 15  1  0  0  0  0
  5 16  1  0  0  0  0
  5 17  1  0  0  0  0
  6 18  1  0  0  0  0
  6 19  1  0  0  0  0
  6 20  1  0  0  0  0
  7 21  1  0  0  0  0
M  END
