  12
 
 C          1.8850000000       -1.0360000000       -0.1120000000
 C          2.9210000000       -1.6310000000        0.6080000000
 C          2.8780000000       -1.6520000000        2.0020000000
 C          1.8000000000       -1.0790000000        2.6760000000
 C          0.7640000000       -0.4840000000        1.9550000000
 C          0.8070000000       -0.4630000000        0.5610000000
 Cl        -0.4460000000        0.2590000000       -0.3870000000
 Cl        -0.5450000000        0.2090000000        2.8470000000
 Cl         4.1310000000       -2.3740000000        2.9500000000
 Cl         4.2300000000       -2.3240000000       -0.2830000000
 H          1.9190000000       -1.0190000000       -1.2000000000
 H          1.7660000000       -1.0950000000        3.7630000000
