 xtb: 6.7.1 (edcfbbe)
          04112512443D

 20 19  0     0  0            999 V2000
   -1.6206    0.3664    1.2715 C   0  0  0  0  0  0  0  0  0  0  0  0
   -1.6590   -0.5985    0.0891 C   0  0  0  0  0  0  0  0  0  0  0  0
   -2.9744   -0.4717   -0.6744 C   0  0  0  0  0  0  0  0  0  0  0  0
   -0.4907   -0.3330   -0.8651 C   0  0  0  0  0  0  0  0  0  0  0  0
    0.7586   -0.6432   -0.2357 O   0  0  0  0  0  0  0  0  0  0  0  0
    1.6193    0.3332    0.0252 C   0  0  0  0  0  0  0  0  0  0  0  0
    1.4292    1.4981   -0.2600 O   0  0  0  0  0  0  0  0  0  0  0  0
    2.8511   -0.1897    0.7029 C   0  0  0  0  0  0  0  0  0  0  0  0
   -0.6897    0.2610    1.8251 H   0  0  0  0  0  0  0  0  0  0  0  0
   -2.4462    0.1667    1.9489 H   0  0  0  0  0  0  0  0  0  0  0  0
   -1.6952    1.3950    0.9239 H   0  0  0  0  0  0  0  0  0  0  0  0
   -1.5548   -1.6217    0.4642 H   0  0  0  0  0  0  0  0  0  0  0  0
   -3.0115   -1.1786   -1.4989 H   0  0  0  0  0  0  0  0  0  0  0  0
   -3.0821    0.5336   -1.0744 H   0  0  0  0  0  0  0  0  0  0  0  0
   -3.8105   -0.6703   -0.0102 H   0  0  0  0  0  0  0  0  0  0  0  0
   -0.5559   -0.9820   -1.7415 H   0  0  0  0  0  0  0  0  0  0  0  0
   -0.4760    0.7152   -1.1801 H   0  0  0  0  0  0  0  0  0  0  0  0
    3.7146    0.0267    0.0791 H   0  0  0  0  0  0  0  0  0  0  0  0
    2.7594   -1.2578    0.8657 H   0  0  0  0  0  0  0  0  0  0  0  0
    2.9845    0.3319    1.6471 H   0  0  0  0  0  0  0  0  0  0  0  0
  1  2  1  0  0  0  0
  2  3  1  0  0  0  0
  2  4  1  0  0  0  0
  4  5  1  0  0  0  0
  5  6  1  0  0  0  0
  6  7  2  0  0  0  0
  6  8  1  0  0  0  0
  1  9  1  0  0  0  0
  1 10  1  0  0  0  0
  1 11  1  0  0  0  0
  2 12  1  0  0  0  0
  3 13  1  0  0  0  0
  3 14  1  0  0  0  0
  3 15  1  0  0  0  0
  4 16  1  0  0  0  0
  4 17  1  0  0  0  0
  8 18  1  0  0  0  0
  8 19  1  0  0  0  0
  8 20  1  0  0  0  0
M  END
