21
 xtb: 6.7.1 (edcfbbe)
C            2.09634670032392       -0.70841369426157       -0.78380927702308
C            1.47769094299370       -0.45182897364292        0.58901353150615
C            0.19589351256815        0.37730983870985        0.56893273050578
H           -0.19563801229950        0.42858543787196        1.59853316960863
C           -0.91928821894943       -0.17711357340607       -0.33013599973223
C           -1.27612813184422       -1.61060485545070        0.07015593716037
C           -2.16777189782436        0.70712353457921       -0.26599255221896
O            0.58344952095174        1.71352880245190        0.15779345136323
H            3.05507490108270       -1.22542476235337       -0.67753884651055
H            2.28178625224026        0.22646976915584       -1.32188403314631
H            1.45198900885144       -1.33469180500982       -1.40853401217958
H            1.26829940800298       -1.40358961913062        1.08811157085303
H            2.19765391406247        0.07693055936046        1.22521140478439
H           -0.54858880978923       -0.17856274121708       -1.36404455285549
H           -1.55979306457613       -1.65659325060032        1.12884232723244
H           -2.12710525256167       -1.96846777216927       -0.51820364174090
H           -0.44552798047768       -2.30397433438852       -0.08898801125511
H           -1.98183455344552        1.72324491729718       -0.62971139421832
H           -2.54285114243612        0.77280068802766        0.76291514571282
H           -2.96520276860395        0.28572532095992       -0.88656338923793
H           -0.17845369248523        2.29171468701432        0.28455617744798
