19
 xtb: 6.7.1 (edcfbbe)
C           -2.54063753518929       -0.12979545344897        0.49989105999293
C           -1.79695851288251       -1.26677896636161        0.19536395714752
C           -0.51208396478692       -1.14251366660673       -0.33106130087683
C            0.04856914054373        0.11779450063160       -0.56179096787804
C           -0.70758746700074        1.25302788897651       -0.24751613540346
C           -1.99125804992359        1.13210173830100        0.27620593658154
C            1.45820961166682        0.25649737397462       -1.07066424678475
C            2.45653758643663        0.47037110676552        0.06887971156574
O            2.51611810555298       -0.65003807436488        0.96677535657806
H           -3.54293303426000       -0.22477786613545        0.90585827589665
H           -2.21745363942210       -2.25363422597677        0.36406929457890
H            0.06097016116211       -2.03304029382249       -0.57532763370363
H           -0.28463579278485        2.23927394783259       -0.42133763991997
H           -2.56655085692862        2.02369397372798        0.50710044721372
H            1.74814837217586       -0.63732469760673       -1.63357203132787
H            1.53322547436991        1.11947599840722       -1.74256947888480
H            3.46529563932123        0.58305191766196       -0.33864700195278
H            2.20280725684557        1.38616143363593        0.62168005480480
H            1.64069498751778       -0.74764843207861        1.36600709332754
