 xtb: 6.7.1 (edcfbbe)
          04112511193D

 14 13  0     0  0            999 V2000
   -1.1780    0.2496   -0.3789 C   0  0  0  0  0  0  0  0  0  0  0  0
    0.0013    0.6508    0.5260 C   0  0  0  0  0  0  0  0  0  0  0  0
    1.0338   -0.4865    0.6385 C   0  0  0  0  0  0  0  0  0  0  0  0
    1.2055   -1.1156   -0.6142 O   0  0  0  0  0  0  0  0  0  0  0  0
    0.5380    1.8240   -0.0418 O   0  0  0  0  0  0  0  0  0  0  0  0
   -1.7363   -0.9953   -0.0490 O   0  0  0  0  0  0  0  0  0  0  0  0
   -0.8204    0.2681   -1.4138 H   0  0  0  0  0  0  0  0  0  0  0  0
   -1.9709    0.9921   -0.2706 H   0  0  0  0  0  0  0  0  0  0  0  0
   -0.3734    0.8564    1.5400 H   0  0  0  0  0  0  0  0  0  0  0  0
    0.6685   -1.2088    1.3807 H   0  0  0  0  0  0  0  0  0  0  0  0
    1.9803   -0.0641    0.9962 H   0  0  0  0  0  0  0  0  0  0  0  0
    1.9755   -1.6985   -0.5792 H   0  0  0  0  0  0  0  0  0  0  0  0
    1.2517    2.1616    0.5181 H   0  0  0  0  0  0  0  0  0  0  0  0
   -1.1228   -1.6844   -0.3429 H   0  0  0  0  0  0  0  0  0  0  0  0
  1  2  1  0  0  0  0
  2  3  1  0  0  0  0
  3  4  1  0  0  0  0
  2  5  1  0  0  0  0
  1  6  1  0  0  0  0
  1  7  1  0  0  0  0
  1  8  1  0  0  0  0
  2  9  1  0  0  0  0
  3 10  1  0  0  0  0
  3 11  1  0  0  0  0
  4 12  1  0  0  0  0
  5 13  1  0  0  0  0
  6 14  1  0  0  0  0
M  END
