 xtb: 6.7.1 (edcfbbe)
          04112512383D

 19 19  0     0  0            999 V2000
    1.5809   -2.4392    0.9095 C   0  0  0  0  0  0  0  0  0  0  0  0
    1.0289   -1.7802   -0.2343 O   0  0  0  0  0  0  0  0  0  0  0  0
    0.6986   -0.4665   -0.0712 C   0  0  0  0  0  0  0  0  0  0  0  0
    1.6577    0.5471    0.0027 C   0  0  0  0  0  0  0  0  0  0  0  0
    1.2867    1.8784    0.1028 C   0  0  0  0  0  0  0  0  0  0  0  0
   -0.0498    2.2313    0.1040 C   0  0  0  0  0  0  0  0  0  0  0  0
   -1.0139    1.2432   -0.0078 C   0  0  0  0  0  0  0  0  0  0  0  0
   -0.6554   -0.1010   -0.0795 C   0  0  0  0  0  0  0  0  0  0  0  0
   -1.6950   -1.1677   -0.2113 C   0  0  0  0  0  0  0  0  0  0  0  0
   -2.5873   -1.1368   -1.0300 O   0  0  0  0  0  0  0  0  0  0  0  0
   -1.5451   -2.1393    0.6630 O   0  0  0  0  0  0  0  0  0  0  0  0
   -2.6843    1.6837   -0.0219 Cl  0  0  0  0  0  0  0  0  0  0  0  0
    3.3403    0.1501   -0.0864 Cl  0  0  0  0  0  0  0  0  0  0  0  0
    1.8294   -3.4390    0.5649 H   0  0  0  0  0  0  0  0  0  0  0  0
    0.8336   -2.4882    1.7042 H   0  0  0  0  0  0  0  0  0  0  0  0
    2.4773   -1.9349    1.2716 H   0  0  0  0  0  0  0  0  0  0  0  0
    2.0490    2.6374    0.1662 H   0  0  0  0  0  0  0  0  0  0  0  0
   -0.3462    3.2636    0.1782 H   0  0  0  0  0  0  0  0  0  0  0  0
   -2.2121   -2.8481    0.5591 H   0  0  0  0  0  0  0  0  0  0  0  0
  1  2  1  0  0  0  0
  2  3  1  0  0  0  0
  3  4  4  0  0  0  0
  4  5  4  0  0  0  0
  5  6  4  0  0  0  0
  6  7  4  0  0  0  0
  3  8  4  0  0  0  0
  7  8  4  0  0  0  0
  8  9  1  0  0  0  0
  9 10  2  0  0  0  0
  9 11  4  0  0  0  0
  7 12  1  0  0  0  0
  4 13  1  0  0  0  0
  1 14  1  0  0  0  0
  1 15  1  0  0  0  0
  1 16  1  0  0  0  0
  5 17  1  0  0  0  0
  6 18  1  0  0  0  0
 11 19  1  0  0  0  0
M  END
