 22

C      1.885000    -1.036000    -0.112000
C      2.921000    -1.631000     0.608000
C      2.878000    -1.652000     2.002000
C      1.800000    -1.079000     2.676000
C      0.764000    -0.484000     1.955000
C      0.807000    -0.463000     0.561000
Cl    -0.602000     0.245000     2.729000
C      1.755000    -1.101000     4.130000
C      1.151000    -2.169000     4.793000
C      1.109000    -2.191000     6.187000
C      1.670000    -1.145000     6.918000
C      2.275000    -0.076000     6.255000
C      2.317000    -0.054000     4.861000
Cl     3.082000     1.299000     4.100000
Cl     0.435000    -3.498000     3.946000
Cl     4.195000    -2.405000     2.837000
H      1.918000    -1.020000    -1.198000
H      3.754000    -2.073000     0.067000
H      0.008000    -0.004000    -0.017000
H      0.643000    -3.016000     6.721000
H      1.637000    -1.162000     8.004000
H      2.705000     0.732000     6.841000
