  22
 
 C          1.8850000000       -1.0360000000       -0.1120000000
 C          2.9210000000       -1.6310000000        0.6080000000
 C          2.8780000000       -1.6520000000        2.0020000000
 C          1.8000000000       -1.0790000000        2.6760000000
 C          0.7640000000       -0.4840000000        1.9550000000
 C          0.8070000000       -0.4630000000        0.5610000000
 Cl        -0.6020000000        0.2450000000        2.7290000000
 C          1.7550000000       -1.1010000000        4.1300000000
 C          1.1510000000       -2.1690000000        4.7930000000
 C          1.1090000000       -2.1910000000        6.1870000000
 C          1.6700000000       -1.1450000000        6.9180000000
 C          2.2750000000       -0.0760000000        6.2550000000
 C          2.3170000000       -0.0540000000        4.8610000000
 Cl         3.0820000000        1.2990000000        4.1000000000
 Cl         0.4350000000       -3.4980000000        3.9460000000
 Cl         4.1950000000       -2.4050000000        2.8370000000
 H          1.9180000000       -1.0200000000       -1.1980000000
 H          3.7540000000       -2.0730000000        0.0670000000
 H          0.0080000000       -0.0040000000       -0.0170000000
 H          0.6430000000       -3.0160000000        6.7210000000
 H          1.6370000000       -1.1620000000        8.0040000000
 H          2.7050000000        0.7320000000        6.8410000000
