 12

C      1.885000    -1.036000    -0.112000
C      2.921000    -1.631000     0.608000
C      2.878000    -1.652000     2.002000
C      1.800000    -1.079000     2.676000
C      0.764000    -0.484000     1.955000
C      0.807000    -0.463000     0.561000
Br    -0.597000     0.343000    -0.415000
Br     4.282000    -2.458000     2.978000
H      1.933000    -1.028000    -1.198000
H      3.755000    -2.073000     0.069000
H      1.752000    -1.087000     3.761000
H     -0.070000    -0.042000     2.494000
