14
 xtb: 6.7.1 (edcfbbe)
C           -2.32197468418576       -0.98173685272174        0.10958818045337
C           -2.45405291755452        0.53331782368629        0.24469957383636
C           -1.26766517050369        1.35021238795843       -0.27299116442530
C            0.03113349949415        1.20245576515616        0.49332502370400
Br           1.14157599976765       -0.36806700674241       -0.08058407180681
H           -1.51925142842377       -1.37844482458788        0.73698800205934
H           -3.25375193484147       -1.47259453363628        0.41001448639623
H           -2.10645085795721       -1.27014940653450       -0.92494235768119
H           -2.62558436015217        0.79349949809419        1.29715481722845
H           -3.34488167380830        0.86324855033525       -0.30324460850333
H           -1.10083504785268        1.16193241997047       -1.33987367243881
H           -1.52798971887135        2.41482427562439       -0.18863429253028
H           -0.12536316170740        1.05757321412917        1.56335805325498
H            0.69894441480905        2.04695747324742        0.33067620137219
