 xtb: 6.7.1 (edcfbbe)
          04112511143D

 17 16  0     0  0            999 V2000
    1.8506    0.6585   -0.8483 C   0  0  0  0  0  0  0  0  0  0  0  0
    1.4048    0.0580    0.4833 C   0  0  0  0  0  0  0  0  0  0  0  0
    1.4913   -1.4664    0.4511 C   0  0  0  0  0  0  0  0  0  0  0  0
   -0.0049    0.5278    0.8617 C   0  0  0  0  0  0  0  0  0  0  0  0
   -1.1129    0.1393   -0.0802 C   0  0  0  0  0  0  0  0  0  0  0  0
   -1.0200   -0.5021   -1.1036 O   0  0  0  0  0  0  0  0  0  0  0  0
   -2.2824    0.6007    0.3520 O   0  0  0  0  0  0  0  0  0  0  0  0
    1.2048    0.3130   -1.6514 H   0  0  0  0  0  0  0  0  0  0  0  0
    2.8703    0.3574   -1.0739 H   0  0  0  0  0  0  0  0  0  0  0  0
    1.8120    1.7449   -0.8125 H   0  0  0  0  0  0  0  0  0  0  0  0
    2.0789    0.4231    1.2667 H   0  0  0  0  0  0  0  0  0  0  0  0
    2.5087   -1.7807    0.2333 H   0  0  0  0  0  0  0  0  0  0  0  0
    1.1978   -1.8888    1.4094 H   0  0  0  0  0  0  0  0  0  0  0  0
    0.8366   -1.8638   -0.3202 H   0  0  0  0  0  0  0  0  0  0  0  0
   -0.0308    1.6174    0.9375 H   0  0  0  0  0  0  0  0  0  0  0  0
   -0.2813    0.1361    1.8434 H   0  0  0  0  0  0  0  0  0  0  0  0
   -3.0211    0.3629   -0.2406 H   0  0  0  0  0  0  0  0  0  0  0  0
  1  2  1  0  0  0  0
  2  3  1  0  0  0  0
  2  4  1  0  0  0  0
  4  5  1  0  0  0  0
  5  6  2  0  0  0  0
  5  7  1  0  0  0  0
  1  8  1  0  0  0  0
  1  9  1  0  0  0  0
  1 10  1  0  0  0  0
  2 11  1  0  0  0  0
  3 12  1  0  0  0  0
  3 13  1  0  0  0  0
  3 14  1  0  0  0  0
  4 15  1  0  0  0  0
  4 16  1  0  0  0  0
  7 17  1  0  0  0  0
M  END
