22
 xtb: 6.7.1 (edcfbbe)
C           -4.37935075408519        0.49443254710505        0.00059133890389
O           -3.44252210184682       -0.59925415705422       -0.00001993829825
C           -2.11728784653411       -0.29684757775659       -0.00000917436688
C           -1.24562202062709       -1.39532918361127       -0.00073516482429
C            0.12029940187140       -1.19466005901584       -0.00078328811633
C            0.64872549382578        0.10668553963094       -0.00030430489216
C           -0.23153740875401        1.19310429377769        0.00017614658055
C           -1.60600574929309        1.00617689708534        0.00059556353861
C            2.09655178880495        0.37285651846804       -0.00031339663820
O            2.59777143660931        1.49019743667544       -0.00438322029245
O            2.83608090716941       -0.75615465086495        0.00289450444313
C            4.27239580063293       -0.56653133180197        0.00164918723755
H           -5.36637029372397        0.03198904032438        0.00015162473793
H           -4.25845485743763        1.10953394493102       -0.89707952396910
H           -4.25867375156249        1.10831242997546        0.89913086026028
H           -1.66108482855254       -2.39736759056425       -0.00127553096630
H            0.78144174413899       -2.05288526834451       -0.00137757487996
H            0.16667215629279        2.20189186817692        0.00076889938438
H           -2.26059121969952        1.86839518213609        0.00138009848540
H            4.69412002644669       -1.57093054046868        0.01073030810551
H            4.58241569043295       -0.01476013908574        0.89232932064586
H            4.58272915879938       -0.03081168273657       -0.89870786620140
