 xtb: 6.7.1 (edcfbbe)
          04112512003D

 22 21  0     0  0            999 V2000
    1.7758    1.3070    0.7450 C   0  0  0  0  0  0  0  0  0  0  0  0
    1.2766   -0.1214    0.4866 C   0  0  0  0  0  0  0  0  0  0  0  0
    2.3294   -0.9358   -0.2594 C   0  0  0  0  0  0  0  0  0  0  0  0
   -0.0000    0.0003   -0.3232 C   0  0  0  0  0  0  0  0  0  0  0  0
   -0.0001    0.0023   -1.5368 O   0  0  0  0  0  0  0  0  0  0  0  0
   -1.2766    0.1195    0.4872 C   0  0  0  0  0  0  0  0  0  0  0  0
   -1.7756   -1.3097    0.7412 C   0  0  0  0  0  0  0  0  0  0  0  0
   -2.3295    0.9361   -0.2561 C   0  0  0  0  0  0  0  0  0  0  0  0
    1.9834    1.8034   -0.2004 H   0  0  0  0  0  0  0  0  0  0  0  0
    2.6902    1.2754    1.3309 H   0  0  0  0  0  0  0  0  0  0  0  0
    1.0334    1.8881    1.2862 H   0  0  0  0  0  0  0  0  0  0  0  0
    1.0491   -0.5937    1.4459 H   0  0  0  0  0  0  0  0  0  0  0  0
    2.5047   -0.5022   -1.2413 H   0  0  0  0  0  0  0  0  0  0  0  0
    3.2635   -0.9459    0.2951 H   0  0  0  0  0  0  0  0  0  0  0  0
    1.9900   -1.9599   -0.3969 H   0  0  0  0  0  0  0  0  0  0  0  0
   -1.0489    0.5888    1.4479 H   0  0  0  0  0  0  0  0  0  0  0  0
   -1.0331   -1.8924    1.2805 H   0  0  0  0  0  0  0  0  0  0  0  0
   -2.6899   -1.2800    1.3273 H   0  0  0  0  0  0  0  0  0  0  0  0
   -1.9833   -1.8032   -0.2057 H   0  0  0  0  0  0  0  0  0  0  0  0
   -1.9902    1.9607   -0.3905 H   0  0  0  0  0  0  0  0  0  0  0  0
   -2.5049    0.5056   -1.2393 H   0  0  0  0  0  0  0  0  0  0  0  0
   -3.2635    0.9445    0.2986 H   0  0  0  0  0  0  0  0  0  0  0  0
  1  2  1  0  0  0  0
  2  3  1  0  0  0  0
  2  4  1  0  0  0  0
  4  5  2  0  0  0  0
  4  6  1  0  0  0  0
  6  7  1  0  0  0  0
  6  8  1  0  0  0  0
  1  9  1  0  0  0  0
  1 10  1  0  0  0  0
  1 11  1  0  0  0  0
  2 12  1  0  0  0  0
  3 13  1  0  0  0  0
  3 14  1  0  0  0  0
  3 15  1  0  0  0  0
  6 16  1  0  0  0  0
  7 17  1  0  0  0  0
  7 18  1  0  0  0  0
  7 19  1  0  0  0  0
  8 20  1  0  0  0  0
  8 21  1  0  0  0  0
  8 22  1  0  0  0  0
M  END
