 xtb: 6.7.1 (edcfbbe)
          04112511193D

 14 13  0     0  0            999 V2000
   -1.2330    0.1986   -0.2920 C   0  0  0  0  0  0  0  0  0  0  0  0
    0.1252    0.6602    0.2651 C   0  0  0  0  0  0  0  0  0  0  0  0
    1.2776   -0.1890   -0.2965 C   0  0  0  0  0  0  0  0  0  0  0  0
    1.0884   -1.5338    0.0877 O   0  0  0  0  0  0  0  0  0  0  0  0
    0.3514    2.0279    0.0211 O   0  0  0  0  0  0  0  0  0  0  0  0
   -1.6741   -1.0098    0.2754 O   0  0  0  0  0  0  0  0  0  0  0  0
   -1.1696    0.1039   -1.3874 H   0  0  0  0  0  0  0  0  0  0  0  0
   -1.9909    0.9477   -0.0471 H   0  0  0  0  0  0  0  0  0  0  0  0
    0.1052    0.5514    1.3550 H   0  0  0  0  0  0  0  0  0  0  0  0
    2.2203    0.2076    0.0994 H   0  0  0  0  0  0  0  0  0  0  0  0
    1.2878   -0.1022   -1.3927 H   0  0  0  0  0  0  0  0  0  0  0  0
    1.8509   -2.0605   -0.1887 H   0  0  0  0  0  0  0  0  0  0  0  0
    0.3270    2.1957   -0.9322 H   0  0  0  0  0  0  0  0  0  0  0  0
   -0.9342   -1.6395    0.2486 H   0  0  0  0  0  0  0  0  0  0  0  0
  1  2  1  0  0  0  0
  2  3  1  0  0  0  0
  3  4  1  0  0  0  0
  2  5  1  0  0  0  0
  1  6  1  0  0  0  0
  1  7  1  0  0  0  0
  1  8  1  0  0  0  0
  2  9  1  0  0  0  0
  3 10  1  0  0  0  0
  3 11  1  0  0  0  0
  4 12  1  0  0  0  0
  5 13  1  0  0  0  0
  6 14  1  0  0  0  0
M  END
