18
 xtb: 6.7.1 (edcfbbe)
C           -2.52752444317706        0.63424469501534        0.10993566348051
C           -1.14867542643726        0.73669317466848       -0.53787068702727
C           -0.03632642262406        0.01615920061186        0.23710835493304
H           -0.01439074974814        0.41582344341696        1.26183761958953
C           -0.26491459479956       -1.49392471029266        0.29877493810883
C            1.30442276541365        0.34627405849028       -0.41729379397850
O            2.44270500062601       -0.17036122708390        0.29747368085677
H           -2.89122289471814       -0.39747805068489        0.13576522948850
H           -2.50451796984877        1.00846660457369        1.13980956385085
H           -3.26209499635987        1.22707857543738       -0.44462153747240
H           -0.87802761764785        1.79629163090157       -0.63468906155770
H           -1.18919026582766        0.33004387595561       -1.55794629924220
H           -1.19896701836994       -1.73749527110499        0.81316509626975
H            0.53828222078491       -2.00398072494370        0.84186800293438
H           -0.31486114825964       -1.91606313888926       -0.71296271452860
H            1.44463820207831        1.43187079670826       -0.44499639162942
H            1.31170467986331       -0.02343251191729       -1.45420442256854
H            2.43353700849818       -1.13140563157627        0.20942246431868
