 xtb: 6.7.1 (edcfbbe)
          04112511593D

 13 12  0     0  0            999 V2000
   -2.2528   -0.2198    0.1107 C   0  0  0  0  0  0  0  0  0  0  0  0
   -0.9100   -0.2747   -0.3170 O   0  0  0  0  0  0  0  0  0  0  0  0
   -0.0944    0.7209    0.2735 C   0  0  0  0  0  0  0  0  0  0  0  0
    1.3257    0.5435   -0.2608 C   0  0  0  0  0  0  0  0  0  0  0  0
    1.9178   -0.6531    0.1848 O   0  0  0  0  0  0  0  0  0  0  0  0
   -2.7053    0.7434   -0.1480 H   0  0  0  0  0  0  0  0  0  0  0  0
   -2.3247   -0.3695    1.1934 H   0  0  0  0  0  0  0  0  0  0  0  0
   -2.7705   -1.0223   -0.4084 H   0  0  0  0  0  0  0  0  0  0  0  0
   -0.4680    1.7210    0.0144 H   0  0  0  0  0  0  0  0  0  0  0  0
   -0.1002    0.6107    1.3672 H   0  0  0  0  0  0  0  0  0  0  0  0
    1.9601    1.3522    0.1051 H   0  0  0  0  0  0  0  0  0  0  0  0
    1.2974    0.5708   -1.3574 H   0  0  0  0  0  0  0  0  0  0  0  0
    1.3398   -1.3869   -0.0700 H   0  0  0  0  0  0  0  0  0  0  0  0
  1  2  1  0  0  0  0
  2  3  1  0  0  0  0
  3  4  1  0  0  0  0
  4  5  1  0  0  0  0
  1  6  1  0  0  0  0
  1  7  1  0  0  0  0
  1  8  1  0  0  0  0
  3  9  1  0  0  0  0
  3 10  1  0  0  0  0
  4 11  1  0  0  0  0
  4 12  1  0  0  0  0
  5 13  1  0  0  0  0
M  END
