  9
 
 C          0.9584417250       -0.8296385474        0.1000399153
 C         -0.3360465250       -0.0258229258        0.0025021066
 F         -0.4536116734        0.6206636793       -1.1575742640
 F         -0.4565948991        0.8752152182        0.9776813911
 F         -1.3991760827       -0.8446820815        0.0986039842
 O          2.0244564132        0.0671808974       -0.0053112892
 H          0.9424747911       -1.3531095035        1.0664820324
 H          0.9448891262       -1.5654902726       -0.7164178604
 H          2.8592843656       -0.4098063667        0.0517821962
           9
        -24.07230741
 C          0.9694273323        0.8136784535       -0.0564210722
 C         -0.3520978294        0.0420076666        0.0056349987
 F         -1.4004882066        0.8439531852       -0.2243018925
 F         -0.5606528276       -0.5529221279        1.1813988857
 F         -0.3866640885       -0.9242399928       -0.9299416133
 O          2.0705172215       -0.0289159230        0.0597399488
 H          0.9677869711        1.3816070056       -0.9984563874
 H          1.0035783090        1.5071392844        0.7872041872
 H          2.0595534124       -0.6911591603       -0.6437141418
