 xtb: 6.7.1 (edcfbbe)
          04112512263D

 21 21  0     0  0            999 V2000
   -3.2178    1.3912   -0.0027 C   0  0  0  0  0  0  0  0  0  0  0  0
   -2.5642    0.0359   -0.0001 C   0  0  0  0  0  0  0  0  0  0  0  0
   -3.2379   -0.9878    0.0019 O   0  0  0  0  0  0  0  0  0  0  0  0
   -1.0929   -0.0168   -0.0001 C   0  0  0  0  0  0  0  0  0  0  0  0
   -0.2843    1.1199   -0.0020 C   0  0  0  0  0  0  0  0  0  0  0  0
    1.0921    1.0143   -0.0018 C   0  0  0  0  0  0  0  0  0  0  0  0
    1.7000   -0.2412    0.0003 C   0  0  0  0  0  0  0  0  0  0  0  0
    0.8962   -1.3877    0.0023 C   0  0  0  0  0  0  0  0  0  0  0  0
   -0.4713   -1.2725    0.0021 C   0  0  0  0  0  0  0  0  0  0  0  0
    3.0343   -0.4564    0.0008 O   0  0  0  0  0  0  0  0  0  0  0  0
    3.9136    0.6563   -0.0009 C   0  0  0  0  0  0  0  0  0  0  0  0
   -2.9177    1.9491    0.8803 H   0  0  0  0  0  0  0  0  0  0  0  0
   -4.2973    1.2657   -0.0027 H   0  0  0  0  0  0  0  0  0  0  0  0
   -2.9173    1.9459   -0.8877 H   0  0  0  0  0  0  0  0  0  0  0  0
   -0.7238    2.1037   -0.0037 H   0  0  0  0  0  0  0  0  0  0  0  0
    1.6861    1.9135   -0.0033 H   0  0  0  0  0  0  0  0  0  0  0  0
    1.3790   -2.3517    0.0039 H   0  0  0  0  0  0  0  0  0  0  0  0
   -1.0991   -2.1511    0.0035 H   0  0  0  0  0  0  0  0  0  0  0  0
    4.9133    0.2286    0.0001 H   0  0  0  0  0  0  0  0  0  0  0  0
    3.7742    1.2683    0.8931 H   0  0  0  0  0  0  0  0  0  0  0  0
    3.7746    1.2653   -0.8969 H   0  0  0  0  0  0  0  0  0  0  0  0
  1  2  1  0  0  0  0
  2  3  2  0  0  0  0
  2  4  1  0  0  0  0
  4  5  4  0  0  0  0
  5  6  4  0  0  0  0
  6  7  4  0  0  0  0
  7  8  4  0  0  0  0
  4  9  4  0  0  0  0
  8  9  2  0  0  0  0
  7 10  1  0  0  0  0
 10 11  1  0  0  0  0
  1 12  1  0  0  0  0
  1 13  1  0  0  0  0
  1 14  1  0  0  0  0
  5 15  1  0  0  0  0
  6 16  1  0  0  0  0
  8 17  1  0  0  0  0
  9 18  1  0  0  0  0
 11 19  1  0  0  0  0
 11 20  1  0  0  0  0
 11 21  1  0  0  0  0
M  END
