 xtb: 6.7.1 (edcfbbe)
          04072505513D

 15 14  0     0  0            999 V2000
    2.3328   -0.4981    0.5607 C   0  0  0  0  0  0  0  0  0  0  0  0
    1.4808   -0.1711   -0.6604 C   0  0  0  0  0  0  0  0  0  0  0  0
    0.5694    1.0396   -0.4541 C   0  0  0  0  0  0  0  0  0  0  0  0
   -0.5469    0.8031    0.5503 C   0  0  0  0  0  0  0  0  0  0  0  0
   -1.6910   -0.5100   -0.0544 S   0  0  0  0  0  0  0  0  0  0  0  0
    1.7155   -0.8099    1.3992 H   0  0  0  0  0  0  0  0  0  0  0  0
    2.9150    0.3701    0.8618 H   0  0  0  0  0  0  0  0  0  0  0  0
    3.0185   -1.3095    0.3303 H   0  0  0  0  0  0  0  0  0  0  0  0
    0.8695   -1.0381   -0.9231 H   0  0  0  0  0  0  0  0  0  0  0  0
    2.1384    0.0358   -1.5073 H   0  0  0  0  0  0  0  0  0  0  0  0
    0.1218    1.3134   -1.4128 H   0  0  0  0  0  0  0  0  0  0  0  0
    1.1648    1.8870   -0.1057 H   0  0  0  0  0  0  0  0  0  0  0  0
   -0.1570    0.4777    1.5128 H   0  0  0  0  0  0  0  0  0  0  0  0
   -1.1413    1.7067    0.6768 H   0  0  0  0  0  0  0  0  0  0  0  0
   -2.5624   -0.3925    0.9387 H   0  0  0  0  0  0  0  0  0  0  0  0
  1  2  1  0  0  0  0
  2  3  1  0  0  0  0
  3  4  1  0  0  0  0
  4  5  1  0  0  0  0
  1  6  1  0  0  0  0
  1  7  1  0  0  0  0
  1  8  1  0  0  0  0
  2  9  1  0  0  0  0
  2 10  1  0  0  0  0
  3 11  1  0  0  0  0
  3 12  1  0  0  0  0
  4 13  1  0  0  0  0
  4 14  1  0  0  0  0
  5 15  1  0  0  0  0
M  END
