14
 xtb: 6.7.1 (edcfbbe)
C           -1.14971114133505        0.23970803570110       -0.51413027806236
C           -0.03150873176830        0.49575733839728        0.48446995970044
C            0.93198737714930       -0.66564479205779        0.63617742509601
O            1.46479629661481       -1.02331627869093       -0.64851442398294
O            0.62862121885114        1.68323670978798        0.01183029199217
O           -1.87880614286652       -0.91522712306536       -0.07752470361095
H           -0.72857190039849        0.08136725648076       -1.51550578398450
H           -1.80126986268328        1.12322656360795       -0.54649340144068
H           -0.47577343958679        0.67628795082319        1.47560408843962
H            0.40145779078604       -1.51395982928558        1.08950539115002
H            1.74008503270577       -0.36406265324009        1.31916792162478
H            2.09754778841445       -1.73793911062709       -0.50694763264202
H            1.33020965115098        1.89450559248802        0.64139965313202
H           -2.58559141144465       -1.06489706491924       -0.71713072828193
