  19
 
 C         -0.6290000000       -0.3790000000       -0.5370000000
 C         -1.9540000000       -0.8990000000       -0.0330000000
 O         -2.8920000000       -1.0440000000       -0.8210000000
 C         -2.0980000000       -1.2120000000        1.4690000000
 C         -1.8400000000        0.0710000000        2.2690000000
 C         -1.1120000000       -2.3070000000        1.8940000000
 C         -3.5280000000       -1.7020000000        1.7550000000
 H         -0.6190000000        0.7130000000       -0.4690000000
 H          0.1900000000       -0.7630000000        0.0740000000
 H         -0.4900000000       -0.6630000000       -1.5820000000
 H         -1.9310000000       -0.0990000000        3.3470000000
 H         -0.8300000000        0.4550000000        2.0850000000
 H         -2.5540000000        0.8580000000        1.9980000000
 H         -1.2010000000       -2.5420000000        2.9610000000
 H         -0.0760000000       -1.9980000000        1.7110000000
 H         -1.2890000000       -3.2370000000        1.3420000000
 H         -3.6610000000       -1.9330000000        2.8180000000
 H         -3.7580000000       -2.6140000000        1.1910000000
 H         -4.2710000000       -0.9460000000        1.4800000000
