  22
 
 C         -3.7969692552       -0.5503570405       -0.0019600718
 C         -2.5283026914        0.2914239198        0.0005102738
 C         -1.2729568522       -0.5766674867       -0.0007149452
 C          0.0001128747        0.2466681362       -0.0002795430
 O          0.0000490690        1.4507321001       -0.0002443223
 C          1.2732013481       -0.5765748609       -0.0000494041
 C          2.5285489162        0.2915251273       -0.0005545627
 C          3.7971589585       -0.5503420266        0.0024833201
 H         -4.6763959941        0.0886503311        0.0015553974
 H         -3.8367554336       -1.1825001431       -0.8868316096
 H         -3.8350960510       -1.1899179695        0.8776607483
 H         -2.5115898503        0.9358991893        0.8809331171
 H         -2.5106508241        0.9396086831       -0.8771536848
 H         -1.2636633344       -1.2251265437       -0.8806445247
 H         -1.2632285583       -1.2269129961        0.8778775937
 H          1.2636742503       -1.2263900582       -0.8789703923
 H          1.2637761665       -1.2255026096        0.8795437523
 H          2.5123085562        0.9361005792       -0.8808981067
 H          2.5104716319        0.9395870836        0.8771990308
 H          4.6766487316        0.0885766037       -0.0005585062
 H          3.8364574830       -1.1825456084        0.8873338941
 H          3.8356563592       -1.1898587636       -0.8771513376
          22
        -26.19070183
 C         -3.7910992555       -0.5623314852       -0.0559220935
 C         -2.5277330188        0.2668728668        0.1303309824
 C         -1.2674981953       -0.5654309593       -0.0908554660
 C         -0.0000062209        0.2599482659        0.0045339123
 O         -0.0004854969        1.4639664609        0.0018068012
 C          1.2683629746       -0.5638502877        0.1036193769
 C          2.5266983776        0.2655642864       -0.1384089601
 C          3.7916898868       -0.5615257312        0.0458101634
 H         -4.6744838482        0.0484927902        0.1120839250
 H         -3.8405937887       -0.9649974456       -1.0656276823
 H         -3.8116933147       -1.3941066503        0.6456402175
 H         -2.5049934155        0.6855682880        1.1382134044
 H         -2.5239518869        1.1032179681       -0.5702628710
 H         -1.2901627500       -1.0085027555       -1.0911544098
 H         -1.2160407921       -1.3880002972        0.6259023839
 H          1.2128495136       -1.3972008963       -0.6001877900
 H          1.2979458321       -0.9914982437        1.1104356121
 H          2.4946908631        0.6722639514       -1.1509149605
 H          2.5293618761        1.1100837023        0.5522154177
 H          4.6734819030        0.0464066562       -0.1405677878
 H          3.8521749327       -0.9500859708        1.0604805469
 H          3.8041815364       -1.4030531207       -0.6443063167
