 22

C      1.014000     0.394000     0.116000
C      1.117000     1.215000     1.391000
C      2.520000     1.787000     1.577000
C      2.651000     2.614000     2.847000
O      1.709000     2.784000     3.619000
C      4.025000     3.215000     3.097000
C      4.083000     4.030000     4.386000
C      5.466000     4.619000     4.612000
H      0.005000    -0.012000    -0.008000
H      1.240000     1.017000    -0.755000
H      1.722000    -0.441000     0.130000
H      0.854000     0.586000     2.249000
H      0.383000     2.029000     1.358000
H      2.775000     2.431000     0.728000
H      3.251000     0.973000     1.629000
H      4.274000     3.853000     2.242000
H      4.748000     2.394000     3.143000
H      3.346000     4.842000     4.349000
H      3.815000     3.398000     5.241000
H      5.498000     5.202000     5.538000
H      6.210000     3.820000     4.687000
H      5.753000     5.274000     3.783000
