  22
 
 C          1.0140000000        0.3940000000        0.1160000000
 C          1.1170000000        1.2150000000        1.3910000000
 C          2.5200000000        1.7870000000        1.5770000000
 C          2.6510000000        2.6140000000        2.8470000000
 O          1.7090000000        2.7840000000        3.6190000000
 C          4.0250000000        3.2150000000        3.0970000000
 C          4.0830000000        4.0300000000        4.3860000000
 C          5.4660000000        4.6190000000        4.6120000000
 H          0.0050000000       -0.0120000000       -0.0080000000
 H          1.2400000000        1.0170000000       -0.7550000000
 H          1.7220000000       -0.4410000000        0.1300000000
 H          0.8540000000        0.5860000000        2.2490000000
 H          0.3830000000        2.0290000000        1.3580000000
 H          2.7750000000        2.4310000000        0.7280000000
 H          3.2510000000        0.9730000000        1.6290000000
 H          4.2740000000        3.8530000000        2.2420000000
 H          4.7480000000        2.3940000000        3.1430000000
 H          3.3460000000        4.8420000000        4.3490000000
 H          3.8150000000        3.3980000000        5.2410000000
 H          5.4980000000        5.2020000000        5.5380000000
 H          6.2100000000        3.8200000000        4.6870000000
 H          5.7530000000        5.2740000000        3.7830000000
