 xtb: 6.7.1 (edcfbbe)
          04112511443D

 25 25  0     0  0            999 V2000
    1.5345   -0.3279    1.7753 C   0  0  0  0  0  0  0  0  0  0  0  0
    2.0801   -0.2345    0.3829 C   0  0  0  0  0  0  0  0  0  0  0  0
    3.1567   -0.9187    0.0234 C   0  0  0  0  0  0  0  0  0  0  0  0
    1.3914    0.6649   -0.6267 C   0  0  0  0  0  0  0  0  0  0  0  0
    2.1751    1.2282   -1.1443 H   0  0  0  0  0  0  0  0  0  0  0  0
    0.6502   -0.1775   -1.6776 C   0  0  0  0  0  0  0  0  0  0  0  0
   -0.4688   -0.9903   -1.0339 C   0  0  0  0  0  0  0  0  0  0  0  0
   -1.3522   -0.1082   -0.1996 C   0  0  0  0  0  0  0  0  0  0  0  0
   -0.9322    1.0850    0.2561 C   0  0  0  0  0  0  0  0  0  0  0  0
    0.4042    1.6660   -0.0194 C   0  0  0  0  0  0  0  0  0  0  0  0
   -2.6856   -0.5777    0.1268 C   0  0  0  0  0  0  0  0  0  0  0  0
   -3.5036    0.0102    0.8142 O   0  0  0  0  0  0  0  0  0  0  0  0
    1.9803   -1.1700    2.2985 H   0  0  0  0  0  0  0  0  0  0  0  0
    1.7721    0.5771    2.3338 H   0  0  0  0  0  0  0  0  0  0  0  0
    0.4534   -0.4433    1.7750 H   0  0  0  0  0  0  0  0  0  0  0  0
    3.5780   -0.8434   -0.9652 H   0  0  0  0  0  0  0  0  0  0  0  0
    3.6639   -1.5820    0.7030 H   0  0  0  0  0  0  0  0  0  0  0  0
    0.2231    0.4913   -2.4270 H   0  0  0  0  0  0  0  0  0  0  0  0
    1.3497   -0.8482   -2.1761 H   0  0  0  0  0  0  0  0  0  0  0  0
   -1.0652   -1.4854   -1.8029 H   0  0  0  0  0  0  0  0  0  0  0  0
   -0.0375   -1.7713   -0.4008 H   0  0  0  0  0  0  0  0  0  0  0  0
   -1.6193    1.6792    0.8452 H   0  0  0  0  0  0  0  0  0  0  0  0
    0.2559    2.4931   -0.7219 H   0  0  0  0  0  0  0  0  0  0  0  0
    0.8061    2.1120    0.8915 H   0  0  0  0  0  0  0  0  0  0  0  0
   -2.9448   -1.5636   -0.3035 H   0  0  0  0  0  0  0  0  0  0  0  0
  1  2  1  0  0  0  0
  2  3  2  0  0  0  0
  2  4  1  0  0  0  0
  4  5  1  0  0  0  0
  4  6  1  0  0  0  0
  6  7  1  0  0  0  0
  7  8  1  0  0  0  0
  8  9  2  0  0  0  0
  4 10  1  0  0  0  0
  9 10  1  0  0  0  0
  8 11  1  0  0  0  0
 11 12  2  0  0  0  0
  1 13  1  0  0  0  0
  1 14  1  0  0  0  0
  1 15  1  0  0  0  0
  3 16  1  0  0  0  0
  3 17  1  0  0  0  0
  6 18  1  0  0  0  0
  6 19  1  0  0  0  0
  7 20  1  0  0  0  0
  7 21  1  0  0  0  0
  9 22  1  0  0  0  0
 10 23  1  0  0  0  0
 10 24  1  0  0  0  0
 11 25  1  0  0  0  0
M  END
