  12
 
 C         -0.9280000000        0.5690000000        0.0840000000
 O         -1.2500000000        0.7970000000        1.4600000000
 C         -1.4580000000       -0.3260000000        2.2100000000
 O         -1.3920000000       -1.4790000000        1.8050000000
 C         -1.7830000000        0.0870000000        3.6250000000
 C         -2.0210000000       -1.0690000000        4.4960000000
 N         -2.2110000000       -1.9810000000        5.1890000000
 H         -0.7830000000        1.5280000000       -0.4210000000
 H         -1.7390000000        0.0130000000       -0.3930000000
 H         -0.0060000000       -0.0140000000        0.0260000000
 H         -2.6780000000        0.7190000000        3.6030000000
 H         -0.9440000000        0.6730000000        4.0140000000
