  24
 
 C         -1.7040000000        1.3900000000        0.1390000000
 C         -1.8320000000        1.9210000000       -1.2710000000
 C         -1.0010000000        1.5780000000       -2.2740000000
 C          0.1160000000        0.5700000000       -2.1260000000
 C         -0.0710000000       -0.2190000000       -0.8420000000
 H         -0.9130000000       -0.9170000000       -0.9690000000
 C         -0.3470000000        0.7350000000        0.3190000000
 H          0.4270000000        1.5170000000        0.3610000000
 C         -0.0980000000       -0.1530000000        1.5120000000
 O         -0.5950000000       -0.0150000000        2.6180000000
 N          0.8600000000       -1.0620000000        1.0760000000
 C          1.0670000000       -1.0440000000       -0.2990000000
 O          1.9150000000       -1.6140000000       -0.9660000000
 S          1.6890000000       -2.0880000000        2.1190000000
 C          3.1270000000       -1.0470000000        2.5320000000
 Cl         4.1870000000       -1.9500000000        3.6640000000
 Cl         4.0800000000       -0.6530000000        1.0710000000
 Cl         2.6170000000        0.4670000000        3.3360000000
 H         -2.5190000000        0.6850000000        0.3410000000
 H         -1.8110000000        2.2150000000        0.8530000000
 H         -2.6320000000        2.6310000000       -1.4650000000
 H         -1.1390000000        2.0280000000       -3.2530000000
 H          0.1080000000       -0.1150000000       -2.9810000000
 H          1.0820000000        1.0880000000       -2.1400000000
