  15
 
 C         -0.7820000000       -0.2450000000       -0.7260000000
 C          0.2690000000        0.0620000000        0.3250000000
 Cl         1.3540000000       -1.3320000000        0.5620000000
 O         -0.1500000000       -0.5460000000       -1.9630000000
 C         -1.1010000000       -0.8400000000       -2.9770000000
 C         -0.3840000000       -1.1540000000       -4.2770000000
 Cl         0.6040000000        0.2320000000       -4.8060000000
 H         -1.4140000000       -1.0890000000       -0.4320000000
 H         -1.4190000000        0.6310000000       -0.8780000000
 H          0.8940000000        0.9090000000        0.0260000000
 H         -0.1980000000        0.2800000000        1.2890000000
 H         -1.7840000000        0.0090000000       -3.0860000000
 H         -1.6780000000       -1.7120000000       -2.6530000000
 H          0.2930000000       -2.0060000000       -4.1610000000
 H         -1.1010000000       -1.3680000000       -5.0740000000
