18
 xtb: 6.7.1 (edcfbbe)
C            1.89840429746079       -0.37182468002067        0.87397788456763
C            1.52273255167584        0.26565343659449       -0.46277085749778
C            0.23052117166894       -0.23554840729557       -1.12077431774321
C           -1.08606794686602       -0.02178505033900       -0.36676473206718
H           -1.89730021642801       -0.08370986566188       -1.10842296489316
C           -1.38694035249603       -1.04534269072771        0.72068524096982
O           -1.06901031077183        1.32152291316493        0.17491281563440
H            1.23528508889833       -0.04963543473248        1.68151111476467
H            2.91754833012880       -0.08854604690167        1.15814172879665
H            1.85919102986074       -1.46579477861441        0.81971564367845
H            1.47191938451933        1.35396542385916       -0.34406428521898
H            2.33259370600422        0.07910087975472       -1.17897241656387
H            0.14387245902319        0.26609308295899       -2.09258878861958
H            0.31743825673911       -1.30863630230255       -1.33271653935704
H           -2.36368469675908       -0.83556431521325        1.17141525673541
H           -1.42939550522711       -2.04958817447645        0.28624690824624
H           -0.63525284232641       -1.04174954867592        1.51236606317823
H           -1.92525515850534        1.46860923765723        0.59693855726408
