  26
 
 C          6.8624223649        0.5549413572       -0.0032617652
 C          5.6539435241       -0.3728982623        0.0011627048
 C          4.3402034092        0.4055390569        0.0070585803
 C          3.1258938046       -0.5192517483        0.0073904556
 C          1.8129826141        0.2600802788        0.0020704060
 C          0.6004512375       -0.6683077342        0.0004869011
 C         -0.7103958987        0.1164621770       -0.0007034694
 C         -1.9000434663       -0.8242185239       -0.0008967961
 Br        -3.5863161392        0.1666430622       -0.0008024954
 H          7.7858147742       -0.0193291707       -0.0029032251
 H          6.8524786787        1.1892955536       -0.8868720410
 H          6.8547245979        1.1944458521        0.8767479094
 H          5.6951394430       -1.0178398061        0.8819175678
 H          5.6871343390       -1.0162036445       -0.8811283342
 H          4.3054281275        1.0476599690        0.8901386184
 H          4.3003454632        1.0521982568       -0.8725266701
 H          3.1661105686       -1.1661962313       -0.8721890304
 H          3.1617874054       -1.1616658948        0.8903632059
 H          1.7779522782        0.9018479707       -0.8811606319
 H          1.7724837656        0.9063006242        0.8818331416
 H          0.6391100959       -1.3125050610       -0.8814702919
 H          0.6374945188       -1.3125247020        0.8824979348
 H         -0.7522239406        0.7590722801       -0.8833269192
 H         -0.7531046368        0.7595407682        0.8815071844
 H         -1.9185187871       -1.4516340167       -0.8913795675
 H         -1.9186260875       -1.4516969900        0.8895739557
          26
        -29.89895021
 C          6.4193513427       -0.4464811468       -0.2584898755
 C          5.0473591713       -0.7177764754        0.3461091592
 C          3.9729806928        0.1837775532       -0.2568214971
 C          2.5972862252       -0.0731159551        0.3529274486
 C          1.5251423879        0.8275552083       -0.2550437187
 C          0.1508640387        0.5702517052        0.3571010557
 C         -0.9207394327        1.4686428375       -0.2552364832
 C         -2.2929183727        1.2406984123        0.3497281396
 Br        -2.9813294392       -0.5426774005       -0.0664307899
 H          6.4041281240       -0.6202522850       -1.3322150047
 H          6.7156075531        0.5856728357       -0.0841692187
 H          7.1690827360       -1.0982051589        0.1840687220
 H          5.0885711525       -0.5569272688        1.4259396345
 H          4.7765865063       -1.7626337312        0.1779946156
 H          4.2493691235        1.2289653341       -0.0973160361
 H          3.9264517689        0.0160935147       -1.3354863036
 H          2.3216667338       -1.1183933990        0.1954799484
 H          2.6432469538        0.0966605061        1.4314444768
 H          1.4782596619        0.6544607269       -1.3327387108
 H          1.8015130274        1.8737080991       -0.1004315310
 H         -0.1199798090       -0.4762413559        0.1993841228
 H          0.1967373611        0.7437523119        1.4356401333
 H         -0.9641826588        1.3029752631       -1.3345665686
 H         -0.6565414383        2.5176439307       -0.0896692323
 H         -2.2690699072        1.3061412831        1.4371254435
 H         -3.0285941437        1.9400551985       -0.0456773947
