 xtb: 6.7.1 (edcfbbe)
          04112511193D

 14 13  0     0  0            999 V2000
   -1.1870    0.1793   -0.5131 C   0  0  0  0  0  0  0  0  0  0  0  0
   -0.0614    0.4990    0.4794 C   0  0  0  0  0  0  0  0  0  0  0  0
    0.9065   -0.6964    0.5875 C   0  0  0  0  0  0  0  0  0  0  0  0
    1.6895   -0.8496   -0.5767 O   0  0  0  0  0  0  0  0  0  0  0  0
    0.6136    1.6844    0.1250 O   0  0  0  0  0  0  0  0  0  0  0  0
   -2.0157   -0.8052    0.0635 O   0  0  0  0  0  0  0  0  0  0  0  0
   -0.7402   -0.1853   -1.4483 H   0  0  0  0  0  0  0  0  0  0  0  0
   -1.7521    1.0995   -0.7126 H   0  0  0  0  0  0  0  0  0  0  0  0
   -0.5038    0.6814    1.4630 H   0  0  0  0  0  0  0  0  0  0  0  0
    0.3133   -1.6061    0.6945 H   0  0  0  0  0  0  0  0  0  0  0  0
    1.5422   -0.5779    1.4703 H   0  0  0  0  0  0  0  0  0  0  0  0
    2.4068   -0.2009   -0.5569 H   0  0  0  0  0  0  0  0  0  0  0  0
    0.9530    1.5858   -0.7777 H   0  0  0  0  0  0  0  0  0  0  0  0
   -2.7063   -1.0500   -0.5678 H   0  0  0  0  0  0  0  0  0  0  0  0
  1  2  1  0  0  0  0
  2  3  1  0  0  0  0
  3  4  1  0  0  0  0
  2  5  1  0  0  0  0
  1  6  1  0  0  0  0
  1  7  1  0  0  0  0
  1  8  1  0  0  0  0
  2  9  1  0  0  0  0
  3 10  1  0  0  0  0
  3 11  1  0  0  0  0
  4 12  1  0  0  0  0
  5 13  1  0  0  0  0
  6 14  1  0  0  0  0
M  END
