 xtb: 6.7.1 (edcfbbe)
          04112511193D

 14 13  0     0  0            999 V2000
   -1.1414    0.2074   -0.4260 C   0  0  0  0  0  0  0  0  0  0  0  0
    0.0151    0.6775    0.4689 C   0  0  0  0  0  0  0  0  0  0  0  0
    1.1655   -0.3583    0.5188 C   0  0  0  0  0  0  0  0  0  0  0  0
    1.1597   -1.3007   -0.5213 O   0  0  0  0  0  0  0  0  0  0  0  0
    0.5535    1.8921   -0.0072 O   0  0  0  0  0  0  0  0  0  0  0  0
   -1.6172   -1.0293    0.0619 O   0  0  0  0  0  0  0  0  0  0  0  0
   -0.7672    0.1109   -1.4535 H   0  0  0  0  0  0  0  0  0  0  0  0
   -1.9341    0.9655   -0.4048 H   0  0  0  0  0  0  0  0  0  0  0  0
   -0.3663    0.8116    1.4917 H   0  0  0  0  0  0  0  0  0  0  0  0
    1.1465   -0.8682    1.4888 H   0  0  0  0  0  0  0  0  0  0  0  0
    2.1040    0.1926    0.4248 H   0  0  0  0  0  0  0  0  0  0  0  0
    0.3620   -1.8446   -0.4244 H   0  0  0  0  0  0  0  0  0  0  0  0
   -0.1214    2.5854    0.0140 H   0  0  0  0  0  0  0  0  0  0  0  0
   -2.4148   -1.2782   -0.4248 H   0  0  0  0  0  0  0  0  0  0  0  0
  1  2  1  0  0  0  0
  2  3  1  0  0  0  0
  3  4  1  0  0  0  0
  2  5  1  0  0  0  0
  1  6  1  0  0  0  0
  1  7  1  0  0  0  0
  1  8  1  0  0  0  0
  2  9  1  0  0  0  0
  3 10  1  0  0  0  0
  3 11  1  0  0  0  0
  4 12  1  0  0  0  0
  5 13  1  0  0  0  0
  6 14  1  0  0  0  0
M  END
