 xtb: 6.7.1 (edcfbbe)
          04112511193D

 14 13  0     0  0            999 V2000
   -1.0210   -0.4151   -0.3735 C   0  0  0  0  0  0  0  0  0  0  0  0
    0.1268    0.3689    0.2855 C   0  0  0  0  0  0  0  0  0  0  0  0
    1.4749   -0.0947   -0.2874 C   0  0  0  0  0  0  0  0  0  0  0  0
    1.7510   -1.4466   -0.0269 O   0  0  0  0  0  0  0  0  0  0  0  0
    0.0397    1.7595    0.0434 O   0  0  0  0  0  0  0  0  0  0  0  0
   -2.2606   -0.2269    0.2735 O   0  0  0  0  0  0  0  0  0  0  0  0
   -0.7923   -1.4805   -0.2995 H   0  0  0  0  0  0  0  0  0  0  0  0
   -1.0805   -0.1391   -1.4316 H   0  0  0  0  0  0  0  0  0  0  0  0
    0.1034    0.1707    1.3673 H   0  0  0  0  0  0  0  0  0  0  0  0
    2.2613    0.5612    0.1043 H   0  0  0  0  0  0  0  0  0  0  0  0
    1.4519    0.0112   -1.3743 H   0  0  0  0  0  0  0  0  0  0  0  0
    1.9051   -1.5684    0.9207 H   0  0  0  0  0  0  0  0  0  0  0  0
   -0.6736    2.1355    0.5774 H   0  0  0  0  0  0  0  0  0  0  0  0
   -2.6364    0.6227    0.0061 H   0  0  0  0  0  0  0  0  0  0  0  0
  1  2  1  0  0  0  0
  2  3  1  0  0  0  0
  3  4  1  0  0  0  0
  2  5  1  0  0  0  0
  1  6  1  0  0  0  0
  1  7  1  0  0  0  0
  1  8  1  0  0  0  0
  2  9  1  0  0  0  0
  3 10  1  0  0  0  0
  3 11  1  0  0  0  0
  4 12  1  0  0  0  0
  5 13  1  0  0  0  0
  6 14  1  0  0  0  0
M  END
