 19

C      1.932000    -1.014000    -1.603000
C      1.885000    -1.036000    -0.112000
C      2.921000    -1.631000     0.608000
C      2.878000    -1.652000     2.002000
C      1.800000    -1.079000     2.676000
C      0.764000    -0.484000     1.955000
C      0.807000    -0.463000     0.561000
C     -0.399000     0.134000     2.660000
O      1.773000    -1.110000     4.037000
H      2.440000    -0.108000    -1.948000
H      2.465000    -1.888000    -1.991000
H      0.922000    -1.036000    -2.026000
H      3.765000    -2.080000     0.091000
H      3.689000    -2.116000     2.557000
H     -0.002000    -0.001000    -0.001000
H     -0.199000     1.191000     2.868000
H     -1.312000     0.064000     2.055000
H     -0.604000    -0.377000     3.609000
H      2.563000    -1.558000     4.378000
