  19
 
 C          1.9320000000       -1.0140000000       -1.6030000000
 C          1.8850000000       -1.0360000000       -0.1120000000
 C          2.9210000000       -1.6310000000        0.6080000000
 C          2.8780000000       -1.6520000000        2.0020000000
 C          1.8000000000       -1.0790000000        2.6760000000
 C          0.7640000000       -0.4840000000        1.9550000000
 C          0.8070000000       -0.4630000000        0.5610000000
 C         -0.3990000000        0.1340000000        2.6600000000
 O          1.7730000000       -1.1100000000        4.0370000000
 H          2.4400000000       -0.1080000000       -1.9480000000
 H          2.4650000000       -1.8880000000       -1.9910000000
 H          0.9220000000       -1.0360000000       -2.0260000000
 H          3.7650000000       -2.0800000000        0.0910000000
 H          3.6890000000       -2.1160000000        2.5570000000
 H         -0.0020000000       -0.0010000000       -0.0010000000
 H         -0.1990000000        1.1910000000        2.8680000000
 H         -1.3120000000        0.0640000000        2.0550000000
 H         -0.6040000000       -0.3770000000        3.6090000000
 H          2.5630000000       -1.5580000000        4.3780000000
