 xtb: 6.7.1 (edcfbbe)
          04112511443D

 25 25  0     0  0            999 V2000
    3.0606   -1.1304    0.6837 C   0  0  0  0  0  0  0  0  0  0  0  0
    2.5825    0.2027    0.1947 C   0  0  0  0  0  0  0  0  0  0  0  0
    3.4051    1.2322    0.0626 C   0  0  0  0  0  0  0  0  0  0  0  0
    1.1156    0.3357   -0.1380 C   0  0  0  0  0  0  0  0  0  0  0  0
    0.9787    1.2605   -0.7080 H   0  0  0  0  0  0  0  0  0  0  0  0
    0.5801   -0.8249   -0.9812 C   0  0  0  0  0  0  0  0  0  0  0  0
   -0.8373   -0.5083   -1.4517 C   0  0  0  0  0  0  0  0  0  0  0  0
   -1.6996   -0.0724   -0.3007 C   0  0  0  0  0  0  0  0  0  0  0  0
   -1.1785    0.3501    0.8635 C   0  0  0  0  0  0  0  0  0  0  0  0
    0.2745    0.4471    1.1419 C   0  0  0  0  0  0  0  0  0  0  0  0
   -3.1411   -0.1143   -0.4719 C   0  0  0  0  0  0  0  0  0  0  0  0
   -3.9705    0.2161    0.3580 O   0  0  0  0  0  0  0  0  0  0  0  0
    4.0757   -1.0553    1.0634 H   0  0  0  0  0  0  0  0  0  0  0  0
    2.4192   -1.5113    1.4754 H   0  0  0  0  0  0  0  0  0  0  0  0
    3.0515   -1.8537   -0.1301 H   0  0  0  0  0  0  0  0  0  0  0  0
    3.0690    2.1892   -0.3000 H   0  0  0  0  0  0  0  0  0  0  0  0
    4.4507    1.1619    0.3107 H   0  0  0  0  0  0  0  0  0  0  0  0
    1.2260   -0.9890   -1.8447 H   0  0  0  0  0  0  0  0  0  0  0  0
    0.5629   -1.7365   -0.3834 H   0  0  0  0  0  0  0  0  0  0  0  0
   -0.8127    0.2905   -2.1987 H   0  0  0  0  0  0  0  0  0  0  0  0
   -1.2812   -1.3849   -1.9281 H   0  0  0  0  0  0  0  0  0  0  0  0
   -1.8580    0.6318    1.6577 H   0  0  0  0  0  0  0  0  0  0  0  0
    0.4872    1.3879    1.6544 H   0  0  0  0  0  0  0  0  0  0  0  0
    0.5380   -0.3533    1.8404 H   0  0  0  0  0  0  0  0  0  0  0  0
   -3.4770   -0.4836   -1.4592 H   0  0  0  0  0  0  0  0  0  0  0  0
  1  2  1  0  0  0  0
  2  3  2  0  0  0  0
  2  4  1  0  0  0  0
  4  5  1  0  0  0  0
  4  6  1  0  0  0  0
  6  7  1  0  0  0  0
  7  8  1  0  0  0  0
  8  9  2  0  0  0  0
  4 10  1  0  0  0  0
  9 10  1  0  0  0  0
  8 11  1  0  0  0  0
 11 12  2  0  0  0  0
  1 13  1  0  0  0  0
  1 14  1  0  0  0  0
  1 15  1  0  0  0  0
  3 16  1  0  0  0  0
  3 17  1  0  0  0  0
  6 18  1  0  0  0  0
  6 19  1  0  0  0  0
  7 20  1  0  0  0  0
  7 21  1  0  0  0  0
  9 22  1  0  0  0  0
 10 23  1  0  0  0  0
 10 24  1  0  0  0  0
 11 25  1  0  0  0  0
M  END
