 xtb: 6.7.1 (edcfbbe)
          04082510523D

 16 15  0     0  0            999 V2000
   -2.7386   -0.3368    0.0046 C   0  0  0  0  0  0  0  0  0  0  0  0
   -1.3278   -0.0257    0.4880 C   0  0  0  0  0  0  0  0  0  0  0  0
   -0.3065   -0.1601   -0.6528 C   0  0  0  0  0  0  0  0  0  0  0  0
    1.0671    0.1832   -0.1336 C   0  0  0  0  0  0  0  0  0  0  0  0
    1.4820    1.3266   -0.1188 O   0  0  0  0  0  0  0  0  0  0  0  0
    1.8662   -0.9740    0.3840 C   0  0  0  0  0  0  0  0  0  0  0  0
   -3.4460   -0.2372    0.8236 H   0  0  0  0  0  0  0  0  0  0  0  0
   -2.7946   -1.3525   -0.3791 H   0  0  0  0  0  0  0  0  0  0  0  0
   -3.0308    0.3477   -0.7878 H   0  0  0  0  0  0  0  0  0  0  0  0
   -1.0617   -0.7077    1.2977 H   0  0  0  0  0  0  0  0  0  0  0  0
   -1.2860    0.9924    0.8810 H   0  0  0  0  0  0  0  0  0  0  0  0
   -0.3243   -1.1779   -1.0396 H   0  0  0  0  0  0  0  0  0  0  0  0
   -0.5732    0.5409   -1.4451 H   0  0  0  0  0  0  0  0  0  0  0  0
    1.2491   -1.5988    1.0234 H   0  0  0  0  0  0  0  0  0  0  0  0
    2.7413   -0.6239    0.9241 H   0  0  0  0  0  0  0  0  0  0  0  0
    2.1873   -1.5761   -0.4638 H   0  0  0  0  0  0  0  0  0  0  0  0
  1  2  1  0  0  0  0
  2  3  1  0  0  0  0
  3  4  1  0  0  0  0
  4  5  2  0  0  0  0
  4  6  1  0  0  0  0
  1  7  1  0  0  0  0
  1  8  1  0  0  0  0
  1  9  1  0  0  0  0
  2 10  1  0  0  0  0
  2 11  1  0  0  0  0
  3 12  1  0  0  0  0
  3 13  1  0  0  0  0
  6 14  1  0  0  0  0
  6 15  1  0  0  0  0
  6 16  1  0  0  0  0
M  END
