 15

C      0.941000    -0.058000    -0.703000
C      0.888000    -1.420000    -1.380000
C     -0.338000    -1.543000    -2.287000
C     -0.445000    -2.893000    -2.995000
S     -1.907000    -3.019000    -4.067000
H      1.824000     0.011000    -0.059000
H      0.054000     0.107000    -0.083000
H      0.997000     0.746000    -1.445000
H      0.862000    -2.201000    -0.611000
H      1.810000    -1.560000    -1.954000
H     -0.346000    -0.728000    -3.022000
H     -1.240000    -1.413000    -1.675000
H      0.448000    -3.081000    -3.600000
H     -0.512000    -3.691000    -2.248000
H     -1.584000    -1.994000    -4.866000
