  15
 
 C          0.9410000000       -0.0580000000       -0.7030000000
 C          0.8880000000       -1.4200000000       -1.3800000000
 C         -0.3380000000       -1.5430000000       -2.2870000000
 C         -0.4450000000       -2.8930000000       -2.9950000000
 S         -1.9070000000       -3.0190000000       -4.0670000000
 H          1.8240000000        0.0110000000       -0.0590000000
 H          0.0540000000        0.1070000000       -0.0830000000
 H          0.9970000000        0.7460000000       -1.4450000000
 H          0.8620000000       -2.2010000000       -0.6110000000
 H          1.8100000000       -1.5600000000       -1.9540000000
 H         -0.3460000000       -0.7280000000       -3.0220000000
 H         -1.2400000000       -1.4130000000       -1.6750000000
 H          0.4480000000       -3.0810000000       -3.6000000000
 H         -0.5120000000       -3.6910000000       -2.2480000000
 H         -1.5840000000       -1.9940000000       -4.8660000000
