15
 xtb: 6.7.1 (edcfbbe)
C            2.50511898159764       -0.42005257324414       -0.61646335465057
C            1.62284916282519       -0.46154845000464        0.62891115830588
C            0.65776868089741        0.72000960371737        0.73451933362401
C           -0.31295541556892        0.88421623406266       -0.42838487888041
S           -1.44971325251238       -0.55661198373256       -0.68990227477638
H            3.25885079066526       -1.21315381313726       -0.58846140974256
H            3.03041431899450        0.53910462831058       -0.69433056629460
H            1.92170564465315       -0.55614702020713       -1.53316390772209
H            2.25668492726921       -0.46318967505800        1.52361273585088
H            1.05509266458383       -1.39937000299569        0.64685997548048
H            1.23823224511841        1.65209380429217        0.79454974517918
H            0.08607840899267        0.64697043300483        1.66811387322973
H           -0.92617676677364        1.77867545647873       -0.29226424859084
H            0.21637388541900        0.99310477063292       -1.38003771329345
H           -2.01911585608993       -0.51619770695937        0.53004799033967
