  18
 
 C          0.4202787155        1.2611739156       -0.9591357474
 C          0.4014353014       -0.0000344245       -0.0852460874
 C          1.6114554898        0.0052622114        0.8537967551
 C          0.4409993868       -1.2530310507       -0.9705620756
 O         -0.7179150291       -0.0144032529        0.8021968225
 C         -2.0025464984       -0.0081641734        0.2356290089
 H         -0.3674683270        1.2349191744       -1.7082497616
 H          0.2864430647        2.1438260693       -0.3384990369
 H          1.3745537283        1.3354244998       -1.4725915031
 H          1.5877971316       -0.8788409259        1.4844388404
 H          1.5731301993        0.8821323058        1.4937518555
 H          2.5369858107        0.0160150376        0.2858064077
 H          0.3212223768       -2.1429085850       -0.3577075910
 H         -0.3468799809       -1.2334009770       -1.7193805434
 H          1.3961265060       -1.3074098659       -1.4845037709
 H         -2.6917079941       -0.0326697374        1.0788253368
 H         -2.1842073568       -0.8861012137       -0.3933824185
 H         -2.1942083319        0.8976271935       -0.3496893174
          18
        -20.88916435
 C          1.5009419770        1.0472630022       -0.0009511659
 C          0.4027178125       -0.0204832672        0.0000513578
 C          0.5291079390       -0.8890663638        1.2587918994
 C          0.5310714489       -0.8937636435       -1.2553189564
 O         -0.8081812729        0.7371980489       -0.0025218796
 C         -2.0221115373        0.0321800633       -0.0000784735
 H          1.3975136830        1.6779960263        0.8774070190
 H          2.4840360317        0.5857483969        0.0026253268
 H          1.4013225418        1.6723733998       -0.8837493015
 H         -0.1710479889       -1.7210522713        1.2373282558
 H          0.3345982727       -0.2880747856        2.1441387306
 H          1.5354189626       -1.2933801103        1.3238150737
 H         -0.1669191537       -1.7274926561       -1.2307337200
 H          0.3349959548       -0.2966193510       -2.1429202277
 H          1.5384102131       -1.2957301311       -1.3188942913
 H         -2.1391390550       -0.5977893599       -0.8883007310
 H         -2.8004471012        0.7942371508       -0.0062959261
 H         -2.1421099844       -0.5862371280        0.8958835740
