 xtb: 6.7.1 (edcfbbe)
          04112511013D

 11 10  0     0  0            999 V2000
    1.8330    0.5809    0.3565 C   0  0  0  0  0  0  0  0  0  0  0  0
    0.9824   -0.2555   -0.5862 C   0  0  0  0  0  0  0  0  0  0  0  0
   -0.0892   -0.9060    0.1313 O   0  0  0  0  0  0  0  0  0  0  0  0
   -1.2231   -0.2716    0.2638 C   0  0  0  0  0  0  0  0  0  0  0  0
   -1.5029    0.8178   -0.1692 O   0  0  0  0  0  0  0  0  0  0  0  0
    2.6663    1.0049   -0.1939 H   0  0  0  0  0  0  0  0  0  0  0  0
    1.2406    1.3899    0.7778 H   0  0  0  0  0  0  0  0  0  0  0  0
    2.2145   -0.0367    1.1649 H   0  0  0  0  0  0  0  0  0  0  0  0
    1.5578   -1.0724   -1.0221 H   0  0  0  0  0  0  0  0  0  0  0  0
    0.5456    0.3678   -1.3714 H   0  0  0  0  0  0  0  0  0  0  0  0
   -1.9261   -0.8933    0.8392 H   0  0  0  0  0  0  0  0  0  0  0  0
  1  2  1  0  0  0  0
  2  3  1  0  0  0  0
  3  4  4  0  0  0  0
  4  5  2  0  0  0  0
  1  6  1  0  0  0  0
  1  7  1  0  0  0  0
  1  8  1  0  0  0  0
  2  9  1  0  0  0  0
  2 10  1  0  0  0  0
  4 11  1  0  0  0  0
M  END
