 xtb: 6.7.1 (edcfbbe)
          04072505513D

 15 14  0     0  0            999 V2000
    2.6354   -0.8071   -0.1022 C   0  0  0  0  0  0  0  0  0  0  0  0
    1.9857    0.5714   -0.1492 C   0  0  0  0  0  0  0  0  0  0  0  0
    0.5568    0.5826    0.3962 C   0  0  0  0  0  0  0  0  0  0  0  0
   -0.4068   -0.2053   -0.4759 C   0  0  0  0  0  0  0  0  0  0  0  0
   -2.1152   -0.0110    0.1814 S   0  0  0  0  0  0  0  0  0  0  0  0
    3.6756   -0.7407   -0.4111 H   0  0  0  0  0  0  0  0  0  0  0  0
    2.1294   -1.5023   -0.7669 H   0  0  0  0  0  0  0  0  0  0  0  0
    2.6028   -1.2080    0.9083 H   0  0  0  0  0  0  0  0  0  0  0  0
    1.9810    0.9384   -1.1777 H   0  0  0  0  0  0  0  0  0  0  0  0
    2.5816    1.2647    0.4475 H   0  0  0  0  0  0  0  0  0  0  0  0
    0.2053    1.6161    0.4570 H   0  0  0  0  0  0  0  0  0  0  0  0
    0.5445    0.1699    1.4081 H   0  0  0  0  0  0  0  0  0  0  0  0
   -0.4044    0.1721   -1.4980 H   0  0  0  0  0  0  0  0  0  0  0  0
   -0.1779   -1.2690   -0.4653 H   0  0  0  0  0  0  0  0  0  0  0  0
   -2.7043   -0.7786   -0.7264 H   0  0  0  0  0  0  0  0  0  0  0  0
  1  2  1  0  0  0  0
  2  3  1  0  0  0  0
  3  4  1  0  0  0  0
  4  5  1  0  0  0  0
  1  6  1  0  0  0  0
  1  7  1  0  0  0  0
  1  8  1  0  0  0  0
  2  9  1  0  0  0  0
  2 10  1  0  0  0  0
  3 11  1  0  0  0  0
  3 12  1  0  0  0  0
  4 13  1  0  0  0  0
  4 14  1  0  0  0  0
  5 15  1  0  0  0  0
M  END
