 31

C      0.761000    -1.408000     2.253000
C      0.928000     0.081000     1.957000
H      0.067000     0.609000     2.389000
C      0.945000     0.335000     0.445000
C      1.155000     1.813000     0.125000
C      2.429000     2.363000     0.778000
H      3.299000     1.854000     0.339000
C      2.424000     2.103000     2.293000
H      1.638000     2.702000     2.770000
C      2.204000     0.622000     2.610000
O      3.672000     2.511000     2.846000
C      2.583000     3.855000     0.468000
C      2.673000     4.079000    -1.039000
C      1.422000     4.645000     1.063000
H      1.598000    -1.978000     1.840000
H      0.722000    -1.584000     3.332000
H     -0.165000    -1.787000     1.809000
H      1.743000    -0.253000    -0.025000
H     -0.000000     0.000000     0.000000
H      1.207000     1.941000    -0.963000
H      0.283000     2.384000     0.469000
H      3.077000     0.045000     2.277000
H      2.160000     0.486000     3.698000
H      3.625000     2.330000     3.798000
H      3.514000     4.204000     0.927000
H      2.784000     5.143000    -1.279000
H      1.773000     3.711000    -1.542000
H      3.533000     3.547000    -1.458000
H      1.517000     5.716000     0.851000
H      1.386000     4.518000     2.150000
H      0.466000     4.302000     0.654000
