 xtb: 6.7.1 (edcfbbe)
          04112511413D

 14 13  0     0  0            999 V2000
   -1.0767   -0.5707   -0.1627 C   0  0  0  0  0  0  0  0  0  0  0  0
    0.0081    0.2179    0.5880 C   0  0  0  0  0  0  0  0  0  0  0  0
    1.3174   -0.5747    0.6530 C   0  0  0  0  0  0  0  0  0  0  0  0
    1.7738   -0.7619   -0.6713 O   0  0  0  0  0  0  0  0  0  0  0  0
    0.2063    1.4714   -0.0297 O   0  0  0  0  0  0  0  0  0  0  0  0
   -2.2981    0.1297   -0.1892 O   0  0  0  0  0  0  0  0  0  0  0  0
   -1.2727   -1.5181    0.3417 H   0  0  0  0  0  0  0  0  0  0  0  0
   -0.7287   -0.7733   -1.1849 H   0  0  0  0  0  0  0  0  0  0  0  0
   -0.3417    0.4370    1.6019 H   0  0  0  0  0  0  0  0  0  0  0  0
    1.1334   -1.5347    1.1478 H   0  0  0  0  0  0  0  0  0  0  0  0
    2.0492   -0.0003    1.2343 H   0  0  0  0  0  0  0  0  0  0  0  0
    2.6057   -1.2530   -0.6600 H   0  0  0  0  0  0  0  0  0  0  0  0
    0.7254    1.3203   -0.8355 H   0  0  0  0  0  0  0  0  0  0  0  0
   -2.1041    1.0528   -0.4159 H   0  0  0  0  0  0  0  0  0  0  0  0
  1  2  1  0  0  0  0
  2  3  1  0  0  0  0
  3  4  1  0  0  0  0
  2  5  1  0  0  0  0
  1  6  1  0  0  0  0
  1  7  1  0  0  0  0
  1  8  1  0  0  0  0
  2  9  1  0  0  0  0
  3 10  1  0  0  0  0
  3 11  1  0  0  0  0
  4 12  1  0  0  0  0
  5 13  1  0  0  0  0
  6 14  1  0  0  0  0
M  END
