23
 xtb: 6.7.1 (edcfbbe)
C            2.18442807400419        1.05872117684010        0.21097413800896
C            1.39029555287928        0.38662822179415       -0.91222482474445
C            0.25763061723253       -0.57751159000253       -0.48551217814594
H            0.12809900218743       -1.28365031719458       -1.31846437307103
C            0.64564191031167       -1.40985733014397        0.73858618685148
C           -1.11648232116806        0.12364232788603       -0.34879185945591
C           -2.23229777026122       -0.88075901706477       -0.04861010882358
C           -1.15504885162148        1.26667891496147        0.66845539881975
H            2.90046024760522        1.77240227988987       -0.21074398368259
H            1.54755913491431        1.60432753293549        0.91184809305612
H            2.75760089775138        0.32590490917172        0.78731732707226
H            2.10292315883712       -0.17522163526191       -1.52961908970144
H            0.96352351958439        1.15670418875068       -1.56887186557117
H           -0.07652360579526       -2.21118019875813        0.92012812903947
H            1.62426700788952       -1.87947210618642        0.58855826857013
H            0.70796016526611       -0.80232271434816        1.64743316371126
H           -1.32607508176989        0.56094209833070       -1.33621218154856
H           -3.21434297980285       -0.40765557769590       -0.15676811876044
H           -2.16299911868955       -1.25964630218584        0.97731612829879
H           -2.19421272368845       -1.73908625356674       -0.72929160396294
H           -2.17177789589818        1.66972134763326        0.73993003569751
H           -0.49613114821859        2.09148989846970        0.38302065057326
H           -0.86600947206072        0.92686463001570        1.66963026755248
