15
 xtb: 6.7.1 (edcfbbe)
C           -1.91556255662045       -0.93241970670104        0.26678827805464
C           -1.22038639956092       -0.03120481089958       -0.73995239827419
S           -0.00001056121763        1.13358647726481       -0.00259423468838
C            1.22039651599245       -0.02852901709232        0.73889194707986
C            1.91588489877978       -0.93311619189992       -0.26461010905516
H           -2.65077122788223       -1.56135652896351       -0.24822587690633
H           -1.20872199591218       -1.59828102158191        0.77053135331142
H           -2.43842639395164       -0.34593509875255        1.02816626261697
H           -1.94504444007965        0.62057513216413       -1.23947241725916
H           -0.72564652404606       -0.61849181116033       -1.52018792488939
H            1.94490461621617        0.62502276062112        1.23630893435438
H            0.72559622124008       -0.61319646525746        1.52104725175599
H            2.65077118162842       -1.56050303697943        0.25275280513318
H            1.20919460004619       -1.60050678752596       -0.76653970735089
H            2.43918992777310       -0.34918665030186       -1.02764028802421
