21
 xtb: 6.7.1 (edcfbbe)
C           -2.27743976688712        0.53676811083188        0.80611144446831
C           -1.71094553309329        0.46159329153753       -0.61076282186116
C           -0.53679990025996       -0.50214077450029       -0.81034308166781
C            0.78676544536057       -0.20222115141514       -0.08490625491135
C            1.20499540120661        1.25425673017676       -0.21602715280683
C            1.87916010004731       -1.12489090654334       -0.62588977403510
O            0.65430618375495       -0.43969850251208        1.34836909877186
H           -1.58231275766065        1.01287755201561        1.50217179723203
H           -2.50288830553670       -0.46374659797913        1.19265054948483
H           -3.20714566049461        1.11596140723837        0.81708582104101
H           -2.51024139185403        0.13536078563241       -1.28784417296769
H           -1.42656900291635        1.46571418672259       -0.94791100264984
H           -0.84709468414817       -1.51813999499955       -0.52574224163421
H           -0.30975733646035       -0.54126279706492       -1.88325221864436
H            0.48477723710347        1.91816076616121        0.27036491555173
H            1.27424327276044        1.53322377653664       -1.27156356540092
H            2.18485160452996        1.41027238328797        0.24657546169883
H            2.81107054296330       -0.97419475278535       -0.07171973746832
H            2.06975885812976       -0.92462276182426       -1.68509947289419
H            1.57895830157094       -2.17435587125854       -0.52511369016558
H            0.35727754182073       -1.35355159517103        1.45679650431932
