  16
 
 C         -1.8670000000       -1.1610000000        1.1540000000
 C         -0.3930000000       -0.8180000000        1.0130000000
 C         -0.1450000000        0.1090000000       -0.1770000000
 C          1.3380000000        0.4520000000       -0.3160000000
 C          1.5710000000        1.3430000000       -1.4610000000
 C          1.7640000000        2.0710000000       -2.3960000000
 H         -2.0220000000       -1.8250000000        2.0100000000
 H         -2.2390000000       -1.6700000000        0.2590000000
 H         -2.4670000000       -0.2590000000        1.3110000000
 H         -0.0450000000       -0.3400000000        1.9360000000
 H          0.1810000000       -1.7440000000        0.8890000000
 H         -0.5030000000       -0.3700000000       -1.0980000000
 H         -0.7290000000        1.0300000000       -0.0540000000
 H          1.9220000000       -0.4670000000       -0.4440000000
 H          1.6960000000        0.9350000000        0.6010000000
 H          1.9360000000        2.7180000000       -3.2250000000
