  14
 
 C          2.8850000000       -0.2670000000        3.6510000000
 C          1.6520000000       -0.6230000000        2.9000000000
 C          1.3880000000       -0.0680000000        1.6520000000
 C          0.2270000000       -0.4200000000        0.9730000000
 C         -0.6320000000       -1.3220000000        1.5800000000
 N         -0.4090000000       -1.8820000000        2.7910000000
 C          0.7300000000       -1.5160000000        3.4210000000
 H          3.6950000000       -0.9550000000        3.3890000000
 H          3.2020000000        0.7560000000        3.4210000000
 H          2.7130000000       -0.3160000000        4.7310000000
 H          2.0810000000        0.6370000000        1.2020000000
 H          0.0000000000        0.0000000000        0.0000000000
 H         -1.5510000000       -1.6290000000        1.0920000000
 H          0.8820000000       -1.9810000000        4.3900000000
