 xtb: 6.7.1 (edcfbbe)
          04112511363D

 14 13  0     0  0            999 V2000
   -1.2739    0.2982   -0.1713 C   0  0  0  0  0  0  0  0  0  0  0  0
    0.1489    0.6536    0.2749 C   0  0  0  0  0  0  0  0  0  0  0  0
    1.1871   -0.2610   -0.4002 C   0  0  0  0  0  0  0  0  0  0  0  0
    1.2187   -1.5470    0.1673 O   0  0  0  0  0  0  0  0  0  0  0  0
    0.3403    2.0086   -0.0632 O   0  0  0  0  0  0  0  0  0  0  0  0
   -1.5505   -1.0400    0.1766 O   0  0  0  0  0  0  0  0  0  0  0  0
   -1.3409    0.4481   -1.2565 H   0  0  0  0  0  0  0  0  0  0  0  0
   -1.9681    0.9900    0.3202 H   0  0  0  0  0  0  0  0  0  0  0  0
    0.2209    0.5050    1.3632 H   0  0  0  0  0  0  0  0  0  0  0  0
    2.1901    0.1522   -0.2614 H   0  0  0  0  0  0  0  0  0  0  0  0
    0.9797   -0.3137   -1.4785 H   0  0  0  0  0  0  0  0  0  0  0  0
    0.3072   -1.8826    0.1965 H   0  0  0  0  0  0  0  0  0  0  0  0
    1.1999    2.3073    0.2652 H   0  0  0  0  0  0  0  0  0  0  0  0
   -2.4593   -1.2546   -0.0743 H   0  0  0  0  0  0  0  0  0  0  0  0
  1  2  1  0  0  0  0
  2  3  1  0  0  0  0
  3  4  1  0  0  0  0
  2  5  1  0  0  0  0
  1  6  1  0  0  0  0
  1  7  1  0  0  0  0
  1  8  1  0  0  0  0
  2  9  1  0  0  0  0
  3 10  1  0  0  0  0
  3 11  1  0  0  0  0
  4 12  1  0  0  0  0
  5 13  1  0  0  0  0
  6 14  1  0  0  0  0
M  END
