 xtb: 6.7.1 (edcfbbe)
          04112511193D

 14 13  0     0  0            999 V2000
   -1.1722    0.1521   -0.4785 C   0  0  0  0  0  0  0  0  0  0  0  0
   -0.0383    0.5461    0.4859 C   0  0  0  0  0  0  0  0  0  0  0  0
    1.0038   -0.5828    0.6290 C   0  0  0  0  0  0  0  0  0  0  0  0
    1.5639   -0.9754   -0.6057 O   0  0  0  0  0  0  0  0  0  0  0  0
    0.5666    1.7558    0.0790 O   0  0  0  0  0  0  0  0  0  0  0  0
   -2.0244   -0.8383    0.0436 O   0  0  0  0  0  0  0  0  0  0  0  0
   -0.7369   -0.1727   -1.4326 H   0  0  0  0  0  0  0  0  0  0  0  0
   -1.8015    1.0288   -0.6517 H   0  0  0  0  0  0  0  0  0  0  0  0
   -0.4620    0.7450    1.4755 H   0  0  0  0  0  0  0  0  0  0  0  0
    0.5171   -1.4677    1.0435 H   0  0  0  0  0  0  0  0  0  0  0  0
    1.7813   -0.2565    1.3271 H   0  0  0  0  0  0  0  0  0  0  0  0
    2.2430   -0.3389   -0.8659 H   0  0  0  0  0  0  0  0  0  0  0  0
    0.8017    1.6925   -0.8581 H   0  0  0  0  0  0  0  0  0  0  0  0
   -1.5627   -1.6877    0.0468 H   0  0  0  0  0  0  0  0  0  0  0  0
  1  2  1  0  0  0  0
  2  3  1  0  0  0  0
  3  4  1  0  0  0  0
  2  5  1  0  0  0  0
  1  6  1  0  0  0  0
  1  7  1  0  0  0  0
  1  8  1  0  0  0  0
  2  9  1  0  0  0  0
  3 10  1  0  0  0  0
  3 11  1  0  0  0  0
  4 12  1  0  0  0  0
  5 13  1  0  0  0  0
  6 14  1  0  0  0  0
M  END
