18
 xtb: 6.7.1 (edcfbbe)
C           -1.76158881628265        1.02672721207653        0.81561823779413
C           -1.16360973599435        0.29824102961920       -0.38809946848823
C            0.00461651578465       -0.63465073573761       -0.03590234776681
C            1.38408445001473       -0.00479707799129       -0.18786327423416
C            1.61752107824473        1.23201597220840        0.67386128760761
O            0.02139016726982       -1.79089303231490       -0.91327679609788
H           -2.15423559992808        0.30763397207680        1.54304713625231
H           -1.02928214606656        1.65370934777513        1.33100900752127
H           -2.58968786218166        1.67102679433509        0.50340083035958
H           -1.95393120217311       -0.30989513578565       -0.84576924889114
H           -0.84086648025008        1.01635858116297       -1.15335389053805
H           -0.12167465006581       -0.98332515929190        1.00227736812993
H            2.13138085859572       -0.76845692297502        0.05898714771075
H            1.52333302641985        0.25031414799190       -1.24675731078162
H            1.42281014307792        1.02476817425225        1.73179888138179
H            2.65673776756869        1.56291337130318        0.58460654786635
H            0.97959305294195        2.06616436486568        0.36756213697707
H           -0.83386254030820       -2.23021663399949       -0.82523453832793
