  16
 
 C          2.4415757991       -1.1772093100       -0.2931941892
 C          1.6871351107        0.1251819571       -0.2243766571
 O          2.2489672665        1.1960230821       -0.2498584592
 C          0.2047428197        0.0395988693       -0.1239383735
 C         -0.5354027403        1.2238326915       -0.1584299506
 C         -1.9129355913        1.1659056404       -0.0670688700
 C         -2.5072758875       -0.0826053758        0.0563736462
 N         -1.8204511387       -1.2119972016        0.0961088423
 C         -0.5052333343       -1.1544805227        0.0094157943
 H          2.2918794025       -1.7404149177        0.6255354609
 H          3.5015295116       -0.9711222631       -0.4176620588
 H          2.0862157478       -1.7757417933       -1.1287234013
 H         -0.0098434290        2.1626336208       -0.2579983595
 H         -2.5125935238        2.0623008780       -0.0916936314
 H         -3.5817268843       -0.1891152200        0.1283389350
 H         -0.0059778966       -2.1126657750        0.0535370717
          16
        -25.51675374
 C          2.4528761467       -1.2011494094        0.0236019429
 C          1.7022819850        0.1052244034       -0.0016968985
 O          2.2702127786        1.1731102697       -0.0219794810
 C          0.2157463104        0.0277976980       -0.0002781069
 C         -0.5138696305        1.2190828956        0.0116915922
 C         -1.8946922806        1.1691109612        0.0124162067
 C         -2.5030079829       -0.0787314908        0.0012775173
 N         -1.8266141521       -1.2150970337       -0.0117604213
 C         -0.5082006368       -1.1652505310       -0.0127795811
 H          2.2105748617       -1.7865239744       -0.8608348637
 H          2.1778688816       -1.7750159053        0.9057567938
 H          3.5211242608       -1.0006838292        0.0404936004
 H          0.0223119959        2.1571526171        0.0203285664
 H         -2.4864970850        2.0710749585        0.0216623461
 H         -3.5803922799       -0.1790663235        0.0022028457
 H         -0.0188504372       -2.1294735892       -0.0252193991
