 16

C      3.428000    -1.316000     4.541000
C      2.857000    -0.275000     3.632000
O      3.428000     0.808000     3.557000
C      1.652000    -0.623000     2.900000
C      1.388000    -0.068000     1.652000
C      0.227000    -0.420000     0.973000
C     -0.632000    -1.322000     1.580000
N     -0.409000    -1.882000     2.791000
C      0.730000    -1.516000     3.421000
H      3.036000    -1.280000     5.570000
H      4.527000    -1.283000     4.605000
H      3.202000    -2.345000     4.210000
H      2.080000     0.637000     1.200000
H     -0.001000    -0.000000     0.000000
H     -1.551000    -1.629000     1.092000
H      0.881000    -1.981000     4.390000
