  16
 
 C          3.4280000000       -1.3160000000        4.5410000000
 C          2.8570000000       -0.2750000000        3.6320000000
 O          3.4280000000        0.8080000000        3.5570000000
 C          1.6520000000       -0.6230000000        2.9000000000
 C          1.3880000000       -0.0680000000        1.6520000000
 C          0.2270000000       -0.4200000000        0.9730000000
 C         -0.6320000000       -1.3220000000        1.5800000000
 N         -0.4090000000       -1.8820000000        2.7910000000
 C          0.7300000000       -1.5160000000        3.4210000000
 H          3.0360000000       -1.2800000000        5.5700000000
 H          4.5270000000       -1.2830000000        4.6050000000
 H          3.2020000000       -2.3450000000        4.2100000000
 H          2.0800000000        0.6370000000        1.2000000000
 H         -0.0010000000        0.0000000000        0.0000000000
 H         -1.5510000000       -1.6290000000        1.0920000000
 H          0.8810000000       -1.9810000000        4.3900000000
