  21
 
 C         -2.0370756340        0.7641384564        1.5770639961
 O         -1.5680753343       -0.2598537260        0.7231068541
 C         -0.3509616410       -0.0066411358        0.0511107399
 C          0.8115397653        0.1799480707        1.0731018229
 C          2.0846204670       -0.0021439088        0.4298092687
 N          3.0951230303       -0.1637252759       -0.0777865566
 O         -0.1541708755       -1.0634937717       -0.8252047373
 C         -0.0319383310       -2.3540852727       -0.2546527523
 O         -0.3960169951        1.1709825725       -0.6752994816
 C         -1.2438982632        1.1543825525       -1.8181895894
 H         -3.0917239592        0.5524727470        1.7398970992
 H         -1.9241848665        1.7465185221        1.1123950407
 H         -1.5117567102        0.7505228740        2.5375374113
 H          0.7527691527        1.1974095832        1.4638239283
 H          0.7009090747       -0.5415646217        1.8861333147
 H         -0.0801070285       -3.0411808077       -1.0961561856
 H         -0.8526411931       -2.5550738126        0.4363778102
 H          0.9299363940       -2.4724504763        0.2538215149
 H         -1.3170564040        2.1917248382       -2.1365606800
 H         -2.2307398171        0.7642006005       -1.5596586865
 H         -0.8051739795        0.5439449199       -2.6080613772
          21
        -33.53726798
 C         -2.7703775724       -0.0836656699        0.2314720844
 O         -1.5313693052       -0.3759656267        0.8679942286
 C         -0.3996734797        0.0792913086        0.2003791909
 C          0.7646141487       -0.1939698648        1.2063576435
 C          2.0584831888       -0.2096169894        0.5864259397
 N          3.0897853614       -0.2383329221        0.0926139455
 O         -0.2271768298       -0.5611556227       -1.0345652443
 C         -0.0714349951       -1.9670808719       -0.9922685227
 O         -0.5609129083        1.4367549921       -0.0479857517
 C          0.4170829147        2.0619954603       -0.8615047448
 H         -2.7437267535       -0.3829426340       -0.8185918127
 H         -2.9929327722        0.9819157754        0.3014143292
 H         -3.5153104761       -0.6633942305        0.7714497171
 H          0.7216005567        0.5907440484        1.9649455913
 H          0.5728019144       -1.1566811679        1.6846752560
 H         -0.7940166890       -2.4217238183       -0.3095296494
 H          0.9454998209       -2.2403561732       -0.6951221788
 H         -0.2556748723       -2.3116303602       -2.0076303092
 H          0.0775905287        3.0897049111       -0.9685897866
 H          0.4790856090        1.5817086078       -1.8387178860
 H          1.4012437650        2.0440953381       -0.3849826787
