17
 xtb: 6.7.1 (edcfbbe)
C           -2.67181781700852        0.39610808227055        0.57836996142861
C           -1.70984953295706        0.46454345556691       -0.61703551558874
C           -0.41113131706526       -0.20275573804916       -0.26591306949302
O           -0.17241057519928       -1.38810988880700       -0.43880060021300
O            0.44866773384609        0.65224656905612        0.32003287895598
C            1.73649929247961        0.11115578179695        0.75692027941472
C            2.72147567156880        0.07769714073427       -0.38931723936622
H           -2.26403291617977        0.93092238548149        1.44089999583547
H           -3.62733608468023        0.85479728251998        0.31058156018952
H           -2.85910695434009       -0.64197041001758        0.86875147604835
H           -1.52632205036734        1.50581883750085       -0.89396468251525
H           -2.13543495553721       -0.06322937031716       -1.47395746076718
H            2.05875501870084        0.79918547538680        1.54076798474228
H            1.57428849330083       -0.87860168203321        1.19088323446465
H            2.38745270289001       -0.59769591609655       -1.18157732224222
H            2.86176832726027        1.07801588900704       -0.80914006382210
H            3.68838409020667       -0.27778104793496       -0.01905027142727
