 xtb: 6.7.1 (edcfbbe)
          04112511493D

 17 16  0     0  0            999 V2000
   -3.1673    0.5656    0.1309 C   0  0  0  0  0  0  0  0  0  0  0  0
   -1.8011   -0.0393    0.4263 C   0  0  0  0  0  0  0  0  0  0  0  0
   -0.7566    0.4178   -0.6021 C   0  0  0  0  0  0  0  0  0  0  0  0
    0.5609   -0.2479   -0.3108 C   0  0  0  0  0  0  0  0  0  0  0  0
    0.7952   -1.4255   -0.4895 O   0  0  0  0  0  0  0  0  0  0  0  0
    1.4342    0.6085    0.2034 O   0  0  0  0  0  0  0  0  0  0  0  0
    2.7335    0.1403    0.5802 C   0  0  0  0  0  0  0  0  0  0  0  0
   -3.8913    0.2325    0.8694 H   0  0  0  0  0  0  0  0  0  0  0  0
   -3.1172    1.6509    0.1605 H   0  0  0  0  0  0  0  0  0  0  0  0
   -3.5137    0.2619   -0.8535 H   0  0  0  0  0  0  0  0  0  0  0  0
   -1.8615   -1.1292    0.4038 H   0  0  0  0  0  0  0  0  0  0  0  0
   -1.4747    0.2593    1.4245 H   0  0  0  0  0  0  0  0  0  0  0  0
   -0.6272    1.4982   -0.5579 H   0  0  0  0  0  0  0  0  0  0  0  0
   -1.0815    0.1201   -1.5995 H   0  0  0  0  0  0  0  0  0  0  0  0
    2.9219    0.4964    1.5903 H   0  0  0  0  0  0  0  0  0  0  0  0
    3.4613    0.5600   -0.1125 H   0  0  0  0  0  0  0  0  0  0  0  0
    2.7599   -0.9492    0.5405 H   0  0  0  0  0  0  0  0  0  0  0  0
  1  2  1  0  0  0  0
  2  3  1  0  0  0  0
  3  4  1  0  0  0  0
  4  5  2  0  0  0  0
  4  6  1  0  0  0  0
  6  7  1  0  0  0  0
  1  8  1  0  0  0  0
  1  9  1  0  0  0  0
  1 10  1  0  0  0  0
  2 11  1  0  0  0  0
  2 12  1  0  0  0  0
  3 13  1  0  0  0  0
  3 14  1  0  0  0  0
  7 15  1  0  0  0  0
  7 16  1  0  0  0  0
  7 17  1  0  0  0  0
M  END
