 xtb: 6.7.1 (edcfbbe)
          04112511193D

 14 13  0     0  0            999 V2000
   -1.3596    0.3219   -0.1196 C   0  0  0  0  0  0  0  0  0  0  0  0
    0.1088    0.5912    0.2429 C   0  0  0  0  0  0  0  0  0  0  0  0
    1.0706   -0.3195   -0.5337 C   0  0  0  0  0  0  0  0  0  0  0  0
    1.4356   -1.4025    0.2893 O   0  0  0  0  0  0  0  0  0  0  0  0
    0.4523    1.9278   -0.0516 O   0  0  0  0  0  0  0  0  0  0  0  0
   -1.6658   -1.0223    0.1616 O   0  0  0  0  0  0  0  0  0  0  0  0
   -1.4959    0.5478   -1.1863 H   0  0  0  0  0  0  0  0  0  0  0  0
   -1.9999    0.9949    0.4682 H   0  0  0  0  0  0  0  0  0  0  0  0
    0.2586    0.3683    1.3089 H   0  0  0  0  0  0  0  0  0  0  0  0
    1.9499    0.2842   -0.7966 H   0  0  0  0  0  0  0  0  0  0  0  0
    0.5909   -0.6701   -1.4541 H   0  0  0  0  0  0  0  0  0  0  0  0
    1.9479   -2.0375   -0.2296 H   0  0  0  0  0  0  0  0  0  0  0  0
   -0.0443    2.5274    0.5227 H   0  0  0  0  0  0  0  0  0  0  0  0
   -2.5855   -1.1987   -0.0815 H   0  0  0  0  0  0  0  0  0  0  0  0
  1  2  1  0  0  0  0
  2  3  1  0  0  0  0
  3  4  1  0  0  0  0
  2  5  1  0  0  0  0
  1  6  1  0  0  0  0
  1  7  1  0  0  0  0
  1  8  1  0  0  0  0
  2  9  1  0  0  0  0
  3 10  1  0  0  0  0
  3 11  1  0  0  0  0
  4 12  1  0  0  0  0
  5 13  1  0  0  0  0
  6 14  1  0  0  0  0
M  END
