 xtb: 6.7.1 (edcfbbe)
          04112511523D

 18 17  0     0  0            999 V2000
    1.3448   -1.3921    0.1384 C   0  0  0  0  0  0  0  0  0  0  0  0
    0.8408    0.0443    0.2582 C   0  0  0  0  0  0  0  0  0  0  0  0
    2.0121    1.0180    0.1407 C   0  0  0  0  0  0  0  0  0  0  0  0
   -0.2163    0.3565   -0.8089 C   0  0  0  0  0  0  0  0  0  0  0  0
   -1.5785   -0.2705   -0.5065 C   0  0  0  0  0  0  0  0  0  0  0  0
   -2.1489    0.1925    0.7001 O   0  0  0  0  0  0  0  0  0  0  0  0
    0.5315   -2.1029    0.2575 H   0  0  0  0  0  0  0  0  0  0  0  0
    2.0864   -1.5960    0.9072 H   0  0  0  0  0  0  0  0  0  0  0  0
    1.8051   -1.5517   -0.8346 H   0  0  0  0  0  0  0  0  0  0  0  0
    0.3745    0.1687    1.2420 H   0  0  0  0  0  0  0  0  0  0  0  0
    2.7633    0.8003    0.8960 H   0  0  0  0  0  0  0  0  0  0  0  0
    1.6795    2.0445    0.2758 H   0  0  0  0  0  0  0  0  0  0  0  0
    2.4759    0.9318   -0.8397 H   0  0  0  0  0  0  0  0  0  0  0  0
    0.1224   -0.0045   -1.7812 H   0  0  0  0  0  0  0  0  0  0  0  0
   -0.3427    1.4398   -0.8795 H   0  0  0  0  0  0  0  0  0  0  0  0
   -2.2645   -0.0793   -1.3435 H   0  0  0  0  0  0  0  0  0  0  0  0
   -1.4879   -1.3515   -0.3833 H   0  0  0  0  0  0  0  0  0  0  0  0
   -2.2683    1.1506    0.6414 H   0  0  0  0  0  0  0  0  0  0  0  0
  1  2  1  0  0  0  0
  2  3  1  0  0  0  0
  2  4  1  0  0  0  0
  4  5  1  0  0  0  0
  5  6  1  0  0  0  0
  1  7  1  0  0  0  0
  1  8  1  0  0  0  0
  1  9  1  0  0  0  0
  2 10  1  0  0  0  0
  3 11  1  0  0  0  0
  3 12  1  0  0  0  0
  3 13  1  0  0  0  0
  4 14  1  0  0  0  0
  4 15  1  0  0  0  0
  5 16  1  0  0  0  0
  5 17  1  0  0  0  0
  6 18  1  0  0  0  0
M  END
