 xtb: 6.7.1 (edcfbbe)
          04112511553D

 24 24  0     0  0            999 V2000
   -2.9532    0.2905    0.8372 C   0  0  0  0  0  0  0  0  0  0  0  0
   -2.3417    0.2044   -0.5567 C   0  0  0  0  0  0  0  0  0  0  0  0
   -1.1320   -0.7297   -0.6308 C   0  0  0  0  0  0  0  0  0  0  0  0
    0.0803   -0.2570    0.1689 C   0  0  0  0  0  0  0  0  0  0  0  0
    1.2573   -1.2476    0.0833 C   0  0  0  0  0  0  0  0  0  0  0  0
    2.5440   -0.4014    0.0924 C   0  0  0  0  0  0  0  0  0  0  0  0
    2.0837    1.0479    0.2792 C   0  0  0  0  0  0  0  0  0  0  0  0
    0.6804    1.0646   -0.3173 C   0  0  0  0  0  0  0  0  0  0  0  0
   -3.2067   -0.7023    1.2026 H   0  0  0  0  0  0  0  0  0  0  0  0
   -2.2634    0.7506    1.5398 H   0  0  0  0  0  0  0  0  0  0  0  0
   -3.8603    0.8898    0.8136 H   0  0  0  0  0  0  0  0  0  0  0  0
   -3.1008   -0.1657   -1.2501 H   0  0  0  0  0  0  0  0  0  0  0  0
   -2.0521    1.2022   -0.8900 H   0  0  0  0  0  0  0  0  0  0  0  0
   -1.4264   -1.7183   -0.2688 H   0  0  0  0  0  0  0  0  0  0  0  0
   -0.8382   -0.8355   -1.6786 H   0  0  0  0  0  0  0  0  0  0  0  0
   -0.2049   -0.1429    1.2183 H   0  0  0  0  0  0  0  0  0  0  0  0
    1.2335   -1.9533    0.9128 H   0  0  0  0  0  0  0  0  0  0  0  0
    1.1901   -1.8239   -0.8401 H   0  0  0  0  0  0  0  0  0  0  0  0
    3.2273   -0.7085    0.8830 H   0  0  0  0  0  0  0  0  0  0  0  0
    3.0684   -0.5045   -0.8577 H   0  0  0  0  0  0  0  0  0  0  0  0
    2.0310    1.2913    1.3418 H   0  0  0  0  0  0  0  0  0  0  0  0
    2.7536    1.7599   -0.2008 H   0  0  0  0  0  0  0  0  0  0  0  0
    0.1057    1.9317    0.0039 H   0  0  0  0  0  0  0  0  0  0  0  0
    0.7358    1.0661   -1.4076 H   0  0  0  0  0  0  0  0  0  0  0  0
  1  2  1  0  0  0  0
  2  3  1  0  0  0  0
  3  4  1  0  0  0  0
  4  5  1  0  0  0  0
  5  6  1  0  0  0  0
  6  7  1  0  0  0  0
  4  8  1  0  0  0  0
  7  8  1  0  0  0  0
  1  9  1  0  0  0  0
  1 10  1  0  0  0  0
  1 11  1  0  0  0  0
  2 12  1  0  0  0  0
  2 13  1  0  0  0  0
  3 14  1  0  0  0  0
  3 15  1  0  0  0  0
  4 16  1  0  0  0  0
  5 17  1  0  0  0  0
  5 18  1  0  0  0  0
  6 19  1  0  0  0  0
  6 20  1  0  0  0  0
  7 21  1  0  0  0  0
  7 22  1  0  0  0  0
  8 23  1  0  0  0  0
  8 24  1  0  0  0  0
M  END
