  13
 
 C          0.3040000000        0.8200000000        2.4300000000
 O         -0.8530000000        0.2360000000        1.8470000000
 C         -0.8940000000        0.4510000000        0.4420000000
 C         -2.1460000000       -0.1940000000       -0.1210000000
 O         -2.1150000000       -1.5890000000        0.1550000000
 H          0.3020000000        0.6360000000        3.5080000000
 H          0.3090000000        1.8950000000        2.2340000000
 H          1.1940000000        0.3660000000        1.9870000000
 H         -0.8900000000        1.5300000000        0.2610000000
 H          0.0000000000        0.0000000000        0.0000000000
 H         -2.2040000000       -0.0620000000       -1.2060000000
 H         -3.0380000000        0.2290000000        0.3500000000
 H         -2.9280000000       -1.9650000000       -0.2180000000
