 xtb: 6.7.1 (edcfbbe)
          04112511143D

 17 16  0     0  0            999 V2000
    2.4593    0.9175   -0.1441 C   0  0  0  0  0  0  0  0  0  0  0  0
    1.1964    0.1666    0.2679 C   0  0  0  0  0  0  0  0  0  0  0  0
    1.4148   -1.3413    0.1740 C   0  0  0  0  0  0  0  0  0  0  0  0
    0.0178    0.5950   -0.6260 C   0  0  0  0  0  0  0  0  0  0  0  0
   -1.2770    0.0170   -0.1290 C   0  0  0  0  0  0  0  0  0  0  0  0
   -1.9486   -0.8028   -0.7207 O   0  0  0  0  0  0  0  0  0  0  0  0
   -1.6263    0.4964    1.0549 O   0  0  0  0  0  0  0  0  0  0  0  0
    3.2940    0.6166    0.4833 H   0  0  0  0  0  0  0  0  0  0  0  0
    2.3211    1.9906   -0.0417 H   0  0  0  0  0  0  0  0  0  0  0  0
    2.7099    0.6972   -1.1789 H   0  0  0  0  0  0  0  0  0  0  0  0
    0.9487    0.4278    1.3018 H   0  0  0  0  0  0  0  0  0  0  0  0
    0.5108   -1.8832    0.4450 H   0  0  0  0  0  0  0  0  0  0  0  0
    1.6843   -1.6216   -0.8420 H   0  0  0  0  0  0  0  0  0  0  0  0
    2.2151   -1.6509    0.8411 H   0  0  0  0  0  0  0  0  0  0  0  0
    0.1793    0.2622   -1.6510 H   0  0  0  0  0  0  0  0  0  0  0  0
   -0.0708    1.6818   -0.6014 H   0  0  0  0  0  0  0  0  0  0  0  0
   -2.4623    0.1155    1.3860 H   0  0  0  0  0  0  0  0  0  0  0  0
  1  2  1  0  0  0  0
  2  3  1  0  0  0  0
  2  4  1  0  0  0  0
  4  5  1  0  0  0  0
  5  6  2  0  0  0  0
  5  7  1  0  0  0  0
  1  8  1  0  0  0  0
  1  9  1  0  0  0  0
  1 10  1  0  0  0  0
  2 11  1  0  0  0  0
  3 12  1  0  0  0  0
  3 13  1  0  0  0  0
  3 14  1  0  0  0  0
  4 15  1  0  0  0  0
  4 16  1  0  0  0  0
  7 17  1  0  0  0  0
M  END
