23
 xtb: 6.7.1 (edcfbbe)
C           -1.76210689656505       -1.06443304209540        0.45513192428599
C           -1.17239004061954       -0.09939336465658       -0.57420656806327
C           -2.25332891121997        0.85153975370540       -1.09171223929033
C           -0.00002549604009        0.70772912418640        0.00014616091249
C            1.17238934984787       -0.09958171258912        0.57412655472917
C            1.76225759300051       -1.06402372895595       -0.45568558659924
C            2.25321164045237        0.85117962066377        1.09218900192571
H           -2.64178735569192       -1.57621384851522        0.04925199576791
H           -1.04253342618124       -1.83129040692467        0.75889655474805
H           -2.07558755133599       -0.52062836452012        1.35554830677948
H           -0.80541023167544       -0.68706083399089       -1.42715743729896
H           -1.85069150370659        1.54467001187966       -1.83881907558059
H           -3.07848214701642        0.29840107638571       -1.55351897079189
H           -2.66789209412122        1.44748550408436       -0.26908193836779
H           -0.39074191312169        1.36691257668603        0.78999153568487
H            0.39064020231993        1.36731203198612       -0.78939089991474
H            0.80542334115390       -0.68773394622459        1.42674925290617
H            2.07586058753024       -0.51970237739362       -1.35574467771555
H            2.64188726188822       -1.57602353839666       -0.04997756154912
H            1.04274101289631       -1.83071698254088       -0.75998944300209
H            2.66770851067748        1.44765002634442        0.26990620150303
H            1.85048136571018        1.54382503583470        1.83969556545954
H            3.07842592762838        0.29787162305810        1.55368403050042
