24
 xtb: 6.7.1 (edcfbbe)
C           -2.17647841530078       -0.24351401091080       -1.19670514269559
C           -2.21248315183941        0.31028579759256        0.22598156794261
C           -1.22508171234068       -0.32293621588410        1.21384347373749
C            0.27527232697583       -0.19274776708494        0.90151004142602
C            0.84877167382044       -1.20681716247447       -0.13612335154028
C            1.81996589843052       -0.40271830539701       -1.03048538005378
C            2.10508010959978        0.87993304320535       -0.23564983624320
C            0.74644946084129        1.18369389633846        0.39943961915561
H           -2.96738050674581        0.20804423719564       -1.80556058937181
H           -1.22273946943547       -0.03748615723987       -1.69222500537709
H           -2.33000733941415       -1.32862664020453       -1.20295045353185
H           -2.05226331503190        1.39536235940128        0.19639571113069
H           -3.22236606892427        0.16927853886575        0.63194215749176
H           -1.41184009562672        0.13040018905638        2.19634705414041
H           -1.46278169192649       -1.39046788487165        1.32476282735789
H            0.80354955168155       -0.37702295339689        1.84626972859995
H            1.37377498639245       -2.01371108867406        0.38565589207174
H            0.05734291945675       -1.67579147524044       -0.72560494842752
H            2.72728066690012       -0.96033750422311       -1.28246125043635
H            1.32779572357331       -0.13624655235758       -1.97368275510627
H            2.84689017205748        0.68117441642007        0.54868887547269
H            2.48599287468089        1.69436435191269       -0.86044672249275
H            0.78988148228768        1.92974772333213        1.20033408140011
H            0.07025635774171        1.56450965703714       -0.37560827225201
