 xtb: 6.7.1 (edcfbbe)
          04112511193D

 14 13  0     0  0            999 V2000
   -1.0941   -0.5668   -0.1724 C   0  0  0  0  0  0  0  0  0  0  0  0
   -0.0004    0.2035    0.5796 C   0  0  0  0  0  0  0  0  0  0  0  0
    1.3082   -0.6072    0.6328 C   0  0  0  0  0  0  0  0  0  0  0  0
    1.8688   -0.7915   -0.6500 O   0  0  0  0  0  0  0  0  0  0  0  0
    0.1960    1.4706   -0.0152 O   0  0  0  0  0  0  0  0  0  0  0  0
   -2.3206    0.1260   -0.1707 O   0  0  0  0  0  0  0  0  0  0  0  0
   -1.2795   -1.5262    0.3125 H   0  0  0  0  0  0  0  0  0  0  0  0
   -0.7595   -0.7521   -1.2036 H   0  0  0  0  0  0  0  0  0  0  0  0
   -0.3359    0.4098    1.6002 H   0  0  0  0  0  0  0  0  0  0  0  0
    1.0918   -1.6019    1.0271 H   0  0  0  0  0  0  0  0  0  0  0  0
    2.0160   -0.1077    1.3004 H   0  0  0  0  0  0  0  0  0  0  0  0
    2.4218   -0.0297   -0.8711 H   0  0  0  0  0  0  0  0  0  0  0  0
    0.5004    1.3323   -0.9257 H   0  0  0  0  0  0  0  0  0  0  0  0
   -2.1407    1.0592   -0.3649 H   0  0  0  0  0  0  0  0  0  0  0  0
  1  2  1  0  0  0  0
  2  3  1  0  0  0  0
  3  4  1  0  0  0  0
  2  5  1  0  0  0  0
  1  6  1  0  0  0  0
  1  7  1  0  0  0  0
  1  8  1  0  0  0  0
  2  9  1  0  0  0  0
  3 10  1  0  0  0  0
  3 11  1  0  0  0  0
  4 12  1  0  0  0  0
  5 13  1  0  0  0  0
  6 14  1  0  0  0  0
M  END
