27
 xtb: 6.7.1 (edcfbbe)
C           -2.70688038198489       -1.23485274570012       -2.02267335880841
C           -3.48591908463501       -0.90334219337399       -0.75405519579432
C           -2.61110377252827       -0.87056104649304        0.50303669993746
H           -2.19580198978482       -1.87000139980760        0.63827184347177
C           -3.37634435654037       -0.50637619505656        1.76987982238947
N           -1.39762574028254       -0.01490633587752        0.31414593882448
C           -0.14216956551072       -0.66376003411932        0.23803397357336
O           -0.05364022368819       -1.88365527711521        0.37153847872513
C            0.99246498805216        0.20622315544737        0.01906619228715
C            0.85482731177324        1.54862306657027       -0.15273358197510
N           -0.41330174768568        2.05938317306762       -0.11270347372537
C           -1.57022231020582        1.33820172972075        0.09202638244397
O           -2.66435003434996        1.90034140145797        0.07984445208293
C            1.93067365051383        2.54586337024684       -0.38439345696455
Br           2.69290142202416       -0.63627065918445       -0.03028152659558
H           -2.17116726694018       -2.18501729794401       -1.92162026321871
H           -3.38268417066206       -1.31754554006989       -2.87904408129448
H           -1.97195098153258       -0.45640745361876       -2.25773952077425
H           -4.02144556414362        0.04298557565900       -0.87141357311676
H           -4.24272781873600       -1.67549523169004       -0.57211828504606
H           -3.87796156895183        0.45948932640048        1.69115967658946
H           -4.13662715549395       -1.27445931253970        1.94147056157353
H           -2.71252202790946       -0.49236487414233        2.63925898136279
H           -0.54343700246920        3.05387918031712       -0.25631913546465
H            1.76024758040539        3.05522808974814       -1.33914725650748
H            2.91498860690304        2.08409543637976       -0.39753624538091
H            1.90024872579512        3.30463868132844        0.40511831737855
