 xtb: 6.7.1 (edcfbbe)
          04112511533D

 12 11  0     0  0            999 V2000
   -1.4133    0.3798    1.7140 C   0  0  0  0  0  0  0  0  0  0  0  0
   -1.5132   -0.4627    0.5461 O   0  0  0  0  0  0  0  0  0  0  0  0
   -0.8165   -0.1266   -0.5349 C   0  0  0  0  0  0  0  0  0  0  0  0
    0.7238   -0.0306   -0.4494 C   0  0  0  0  0  0  0  0  0  0  0  0
    1.2403    1.5009    0.2686 Cl  0  0  0  0  0  0  0  0  0  0  0  0
    1.3125   -1.4125    0.4903 Cl  0  0  0  0  0  0  0  0  0  0  0  0
   -1.1033   -1.0598   -1.4834 F   0  0  0  0  0  0  0  0  0  0  0  0
   -1.2746    1.0537   -1.0911 F   0  0  0  0  0  0  0  0  0  0  0  0
   -1.5868    1.4216    1.4461 H   0  0  0  0  0  0  0  0  0  0  0  0
   -0.4415    0.2590    2.1912 H   0  0  0  0  0  0  0  0  0  0  0  0
   -2.2027    0.0174    2.3652 H   0  0  0  0  0  0  0  0  0  0  0  0
    1.1376   -0.0905   -1.4593 H   0  0  0  0  0  0  0  0  0  0  0  0
  1  2  1  0  0  0  0
  2  3  1  0  0  0  0
  3  4  1  0  0  0  0
  4  5  1  0  0  0  0
  4  6  1  0  0  0  0
  3  7  1  0  0  0  0
  3  8  1  0  0  0  0
  1  9  1  0  0  0  0
  1 10  1  0  0  0  0
  1 11  1  0  0  0  0
  4 12  1  0  0  0  0
M  END
