 xtb: 6.7.1 (edcfbbe)
          04112511523D

 13 12  0     0  0            999 V2000
    1.8694   -1.2348   -0.0066 C   0  0  0  0  0  0  0  0  0  0  0  0
    0.9376   -0.4910   -0.8049 O   0  0  0  0  0  0  0  0  0  0  0  0
   -0.0000    0.4762    0.0000 S   0  0  0  0  0  0  0  0  0  0  0  0
   -0.7510    1.2073   -0.9721 O   0  0  0  0  0  0  0  0  0  0  0  0
    0.7508    1.2073    0.9722 O   0  0  0  0  0  0  0  0  0  0  0  0
   -0.9373   -0.4915    0.8048 O   0  0  0  0  0  0  0  0  0  0  0  0
   -1.8694   -1.2347    0.0065 C   0  0  0  0  0  0  0  0  0  0  0  0
    2.5809   -1.6684   -0.7045 H   0  0  0  0  0  0  0  0  0  0  0  0
    1.3378   -2.0070    0.5486 H   0  0  0  0  0  0  0  0  0  0  0  0
    2.3579   -0.5513    0.6864 H   0  0  0  0  0  0  0  0  0  0  0  0
   -2.3623   -0.5498   -0.6821 H   0  0  0  0  0  0  0  0  0  0  0  0
   -2.5772   -1.6734    0.7051 H   0  0  0  0  0  0  0  0  0  0  0  0
   -1.3374   -2.0029   -0.5538 H   0  0  0  0  0  0  0  0  0  0  0  0
  1  2  1  0  0  0  0
  2  3  1  0  0  0  0
  3  4  2  0  0  0  0
  3  5  2  0  0  0  0
  3  6  1  0  0  0  0
  6  7  1  0  0  0  0
  1  8  1  0  0  0  0
  1  9  1  0  0  0  0
  1 10  1  0  0  0  0
  7 11  1  0  0  0  0
  7 12  1  0  0  0  0
  7 13  1  0  0  0  0
M  END
