23
 xtb: 6.7.1 (edcfbbe)
C           -3.67801151809608       -0.73018273951297       -0.15352940323597
C           -3.50698912571013        0.42440132533965        0.60685799919205
C           -2.26434140942399        1.04933482760637        0.67127607454976
C           -1.19808748969689        0.51036775282401       -0.04045898836296
C           -1.35182346601719       -0.63606091289360       -0.81638301784724
C           -2.59811726851571       -1.25398534725262       -0.86267078406573
O            0.00033717253555        1.21729390812893       -0.00165598801172
C            1.19824684406468        0.50971091348703        0.03902686150081
C            2.26655874762059        1.04983335971558       -0.66879054044528
C            3.50889944755858        0.42453650056678       -0.60229365311486
C            3.67772132872791       -0.73158371811205        0.15624386834978
C            2.59575789125003       -1.25669159005973        0.86124331569568
C            1.34969339492621       -0.63845468910007        0.81288252592212
H           -4.64634203903525       -1.21771994423750       -0.19580072269576
H           -4.34217921746869        0.84175961150269        1.16042017947715
H           -2.11406397830028        1.94693323060992        1.26191237241255
H           -0.51276618459518       -1.03657621435764       -1.37518113994445
H           -2.72432148838516       -2.14791208491980       -1.46541817058037
H            2.11811896353374        1.94870271035928       -1.25795721217270
H            4.34564819502290        0.84293607991238       -1.15270848612658
H            4.64585979189950       -1.21935141772997        0.20020797332700
H            2.72013627100305       -2.15190089898134        1.46246788158318
H            0.50914390351771       -1.04006002450776        1.36862680921210
