 xtb: 6.7.1 (edcfbbe)
          04112512393D

 17 16  0     0  0            999 V2000
   -3.1135    0.6127    0.1630 C   0  0  0  0  0  0  0  0  0  0  0  0
   -1.7107    0.1046    0.4697 C   0  0  0  0  0  0  0  0  0  0  0  0
   -0.7876    0.2563   -0.7492 C   0  0  0  0  0  0  0  0  0  0  0  0
    0.5776   -0.2711   -0.4046 C   0  0  0  0  0  0  0  0  0  0  0  0
    0.9644   -1.4022   -0.6141 O   0  0  0  0  0  0  0  0  0  0  0  0
    1.3181    0.6471    0.2060 O   0  0  0  0  0  0  0  0  0  0  0  0
    2.6241    0.2623    0.6428 C   0  0  0  0  0  0  0  0  0  0  0  0
   -3.0859    1.6643   -0.1097 H   0  0  0  0  0  0  0  0  0  0  0  0
   -3.5501    0.0532   -0.6603 H   0  0  0  0  0  0  0  0  0  0  0  0
   -3.7515    0.4978    1.0350 H   0  0  0  0  0  0  0  0  0  0  0  0
   -1.7522   -0.9488    0.7547 H   0  0  0  0  0  0  0  0  0  0  0  0
   -1.2890    0.6657    1.3057 H   0  0  0  0  0  0  0  0  0  0  0  0
   -0.7060    1.3090   -1.0167 H   0  0  0  0  0  0  0  0  0  0  0  0
   -1.1840   -0.3170   -1.5865 H   0  0  0  0  0  0  0  0  0  0  0  0
    3.2356   -0.0181   -0.2155 H   0  0  0  0  0  0  0  0  0  0  0  0
    2.5550   -0.5885    1.3216 H   0  0  0  0  0  0  0  0  0  0  0  0
    3.0331    1.1328    1.1457 H   0  0  0  0  0  0  0  0  0  0  0  0
  1  2  1  0  0  0  0
  2  3  1  0  0  0  0
  3  4  1  0  0  0  0
  4  5  2  0  0  0  0
  4  6  1  0  0  0  0
  6  7  1  0  0  0  0
  1  8  1  0  0  0  0
  1  9  1  0  0  0  0
  1 10  1  0  0  0  0
  2 11  1  0  0  0  0
  2 12  1  0  0  0  0
  3 13  1  0  0  0  0
  3 14  1  0  0  0  0
  7 15  1  0  0  0  0
  7 16  1  0  0  0  0
  7 17  1  0  0  0  0
M  END
