 xtb: 6.7.1 (edcfbbe)
          04112511493D

 21 20  0     0  0            999 V2000
    1.8918    0.7207   -1.0557 C   0  0  0  0  0  0  0  0  0  0  0  0
    1.4316   -0.2242    0.0529 C   0  0  0  0  0  0  0  0  0  0  0  0
    2.2023   -1.0082    0.1487 H   0  0  0  0  0  0  0  0  0  0  0  0
    0.0902   -0.9240   -0.2712 C   0  0  0  0  0  0  0  0  0  0  0  0
   -1.1788   -0.2419    0.2591 C   0  0  0  0  0  0  0  0  0  0  0  0
   -1.3770    1.1636   -0.3009 C   0  0  0  0  0  0  0  0  0  0  0  0
   -2.3887   -1.1145   -0.0751 C   0  0  0  0  0  0  0  0  0  0  0  0
    1.3928    0.5170    1.2620 O   0  0  0  0  0  0  0  0  0  0  0  0
    2.8245    1.1927   -0.7566 H   0  0  0  0  0  0  0  0  0  0  0  0
    2.0551    0.1607   -1.9715 H   0  0  0  0  0  0  0  0  0  0  0  0
    1.1569    1.4971   -1.2353 H   0  0  0  0  0  0  0  0  0  0  0  0
    0.0149   -1.0233   -1.3549 H   0  0  0  0  0  0  0  0  0  0  0  0
    0.1177   -1.9332    0.1478 H   0  0  0  0  0  0  0  0  0  0  0  0
   -1.1045   -0.1614    1.3487 H   0  0  0  0  0  0  0  0  0  0  0  0
   -1.3625    1.1491   -1.3886 H   0  0  0  0  0  0  0  0  0  0  0  0
   -0.5975    1.8285    0.0604 H   0  0  0  0  0  0  0  0  0  0  0  0
   -2.3365    1.5609    0.0240 H   0  0  0  0  0  0  0  0  0  0  0  0
   -3.2965   -0.6757    0.3320 H   0  0  0  0  0  0  0  0  0  0  0  0
   -2.5041   -1.2027   -1.1532 H   0  0  0  0  0  0  0  0  0  0  0  0
   -2.2745   -2.1130    0.3409 H   0  0  0  0  0  0  0  0  0  0  0  0
    1.2397   -0.0871    1.9994 H   0  0  0  0  0  0  0  0  0  0  0  0
  1  2  1  0  0  0  0
  2  3  1  0  0  0  0
  2  4  1  0  0  0  0
  4  5  1  0  0  0  0
  5  6  1  0  0  0  0
  5  7  1  0  0  0  0
  2  8  1  0  0  0  0
  1  9  1  0  0  0  0
  1 10  1  0  0  0  0
  1 11  1  0  0  0  0
  4 12  1  0  0  0  0
  4 13  1  0  0  0  0
  5 14  1  0  0  0  0
  6 15  1  0  0  0  0
  6 16  1  0  0  0  0
  6 17  1  0  0  0  0
  7 18  1  0  0  0  0
  7 19  1  0  0  0  0
  7 20  1  0  0  0  0
  8 21  1  0  0  0  0
M  END
