 xtb: 6.7.1 (edcfbbe)
          04112511523D

 18 17  0     0  0            999 V2000
    1.0330   -1.2650    0.6677 C   0  0  0  0  0  0  0  0  0  0  0  0
    1.0808    0.2412    0.4247 C   0  0  0  0  0  0  0  0  0  0  0  0
    1.6890    0.5444   -0.9440 C   0  0  0  0  0  0  0  0  0  0  0  0
   -0.2965    0.8973    0.6086 C   0  0  0  0  0  0  0  0  0  0  0  0
   -1.3685    0.5321   -0.4184 C   0  0  0  0  0  0  0  0  0  0  0  0
   -1.8411   -0.7845   -0.1996 O   0  0  0  0  0  0  0  0  0  0  0  0
    0.3623   -1.7439   -0.0395 H   0  0  0  0  0  0  0  0  0  0  0  0
    0.6703   -1.4774    1.6705 H   0  0  0  0  0  0  0  0  0  0  0  0
    2.0252   -1.6969    0.5588 H   0  0  0  0  0  0  0  0  0  0  0  0
    1.7333    0.6855    1.1867 H   0  0  0  0  0  0  0  0  0  0  0  0
    2.7313    0.2352   -0.9636 H   0  0  0  0  0  0  0  0  0  0  0  0
    1.6418    1.6095   -1.1592 H   0  0  0  0  0  0  0  0  0  0  0  0
    1.1656    0.0043   -1.7287 H   0  0  0  0  0  0  0  0  0  0  0  0
   -0.1705    1.9814    0.5722 H   0  0  0  0  0  0  0  0  0  0  0  0
   -0.6809    0.6327    1.5957 H   0  0  0  0  0  0  0  0  0  0  0  0
   -2.1999    1.2429   -0.3086 H   0  0  0  0  0  0  0  0  0  0  0  0
   -0.9692    0.6284   -1.4353 H   0  0  0  0  0  0  0  0  0  0  0  0
   -2.5593   -0.9718   -0.8175 H   0  0  0  0  0  0  0  0  0  0  0  0
  1  2  1  0  0  0  0
  2  3  1  0  0  0  0
  2  4  1  0  0  0  0
  4  5  1  0  0  0  0
  5  6  1  0  0  0  0
  1  7  1  0  0  0  0
  1  8  1  0  0  0  0
  1  9  1  0  0  0  0
  2 10  1  0  0  0  0
  3 11  1  0  0  0  0
  3 12  1  0  0  0  0
  3 13  1  0  0  0  0
  4 14  1  0  0  0  0
  4 15  1  0  0  0  0
  5 16  1  0  0  0  0
  5 17  1  0  0  0  0
  6 18  1  0  0  0  0
M  END
