21
CONF2
C -3.7664486870 -0.1128915417 -0.4148062531
C -2.2608856219 -0.1719606891 -0.6477932103
C -1.4609391549 0.1593164628 0.6215863672
C 0.0226617709 0.0987001804 0.3798650002
C 0.7251677310 -1.1006133794 0.5386434303
C 2.0867166068 -1.1750108534 0.2537709388
C 2.7702378958 -0.0470339361 -0.1965756991
C 2.0817527965 1.1538045756 -0.3588653124
C 0.7202658869 1.2237515674 -0.0727106466
H -4.0713975490 -0.8270733489 0.3582688180
H -4.0727058623 0.8865334240 -0.0861414941
H -4.3200136296 -0.3505056561 -1.3289180204
H -1.9753738886 0.5314305741 -1.4403562474
H -1.9732905589 -1.1718507799 -0.9970611562
H -1.7377593323 -0.5493609642 1.4114305003
H -1.7406393793 1.1619777115 0.9669189372
H 0.1968477220 -1.9831814278 0.8910430354
H 2.6158430893 -2.1140547015 0.3868825387
H 3.8318115760 -0.1027148721 -0.4168811873
H 2.6070662891 2.0390833766 -0.7051535065
H 0.1882932473 2.1635137707 -0.1992644866
21
CONF1
C -2.5847574225 -0.8258032735 -0.9869301672
C -2.5063455894 0.4745407706 -0.1940600814
C -1.5100579214 0.4114791479 0.9777126156
C -0.0904884683 0.1980070536 0.5232731827
C 0.5124880560 -1.0615670757 0.5900086305
C 1.8132104561 -1.2587810903 0.1296532358
C 2.5343342295 -0.1947344960 -0.4066607278
C 1.9453991193 1.0671078037 -0.4773430891
C 0.6456938396 1.2589726758 -0.0170335313
H -2.8642211640 -1.6638340519 -0.3377843188
H -3.3311080959 -0.7548192125 -1.7847738174
H -1.6232668330 -1.0705734365 -1.4510233789
H -3.4962155883 0.7199023897 0.2087379217
H -2.2223692386 1.2999364868 -0.8590798493
H -1.8037829681 -0.4005626608 1.6530624718
H -1.5728444298 1.3483765403 1.5431765061
H -0.0452035589 -1.8958680275 1.0077046051
H 2.2637433781 -2.2449848746 0.1913569240
H 3.5486012942 -0.3455047717 -0.7632223944
H 2.5022415227 1.9043605555 -0.8877014222
H 0.1941496077 2.2465128146 -0.0722564005
21
CONF4
C -2.5825871472 1.1845559218 0.4970524740
C -2.5742171937 0.0374623812 -0.5074308228
C -1.5691413033 -1.0709525769 -0.1487364424
C -0.1474496898 -0.5745937924 -0.1124368090
C 0.5083603596 -0.3427888643 1.0999635748
C 1.8079906095 0.1599827330 1.1275747748
C 2.4742211587 0.4399710702 -0.0627691217
C 1.8318174485 0.2122089600 -1.2790994394
C 0.5338293094 -0.2904009507 -1.3016551937
H -3.3408691534 1.9297092136 0.2364995058
H -2.8013513635 0.8202259064 1.5074265904
H -1.6129147052 1.6929895988 0.5298851756
H -2.3414204012 0.4216335388 -1.5086072010
H -3.5739626128 -0.4093861817 -0.5666565959
H -1.6553948269 -1.8783700186 -0.8852971535
H -1.8324267130 -1.4898302636 0.8294981105
H -0.0087822323 -0.5574328196 2.0315646884
H 2.3000361553 0.3322746030 2.0801890061
H 3.4868829137 0.8307441380 -0.0444909829
H 2.3458960788 0.4234561300 -2.2120629323
H 0.0394590126 -0.4672742648 -2.2536629690
21
CONF3
C -3.8412110426 0.1775237009 -0.1568151111
C -2.3753650394 0.5825499690 -0.2858022815
C -1.4427142405 -0.5772684377 0.0523820816
C 0.0375953916 -0.2723983474 0.0560825041
C 0.9249633809 -1.2151487236 0.5934407895
C 2.2967082974 -0.9879121254 0.6088929919
C 2.8158189144 0.1967270505 0.0863384355
C 1.9472046237 1.1426482557 -0.4485894246
C 0.5710078365 0.9101789422 -0.4641488394
H -4.0779778905 -0.6592245438 -0.8236334415
H -4.0717598772 -0.1369915046 0.8672220477
H -4.5076383529 1.0077640245 -0.4109506591
H -2.1667026990 1.4290336659 0.3808472909
H -2.1820632358 0.9324142046 -1.3071549665
H -1.6263867729 -1.3987799706 -0.6549566217
H -1.7119867718 -0.9775984027 1.0388553066
H 0.5275277375 -2.1393279424 1.0063823104
H 2.9626631880 -1.7338995637 1.0326639174
H 3.8858690662 0.3793592145 0.0996482998
H 2.3382139108 2.0700981162 -0.8567238874
H -0.0848068886 1.6643765889 -0.8862901486
