  11
 
 C          1.3880000000       -0.0680000000        1.6520000000
 C          0.2270000000       -0.4200000000        0.9730000000
 C         -0.6320000000       -1.3220000000        1.5800000000
 N         -0.4090000000       -1.8820000000        2.7910000000
 C          0.7300000000       -1.5160000000        3.4210000000
 C          1.6520000000       -0.6230000000        2.9000000000
 Cl         0.9730000000       -2.2490000000        4.9530000000
 H          2.0860000000        0.6370000000        1.2100000000
 H          0.0000000000        0.0010000000        0.0000000000
 H         -1.5510000000       -1.6290000000        1.0920000000
 H          2.5550000000       -0.3540000000        3.4380000000
