21
 xtb: 6.7.1 (edcfbbe)
C            1.73720087476741        1.08750325070804       -0.48552755377014
C            1.33231621705742       -0.35811351034839       -0.24117690110786
C            1.70858585201913       -0.83522368091652        1.15869175829813
O           -0.05539655106363       -0.63983079589557       -0.56211408907022
C           -1.07110562452158        0.33884982343820       -0.25092432132539
C           -2.32349795496495       -0.14999681874910       -0.96093441817564
C           -1.31120080906130        0.49930337382536        1.24578145519392
H            1.45649239936502        1.41775799645885       -1.49047930712038
H            1.29542869842226        1.76828236942252        0.24896723870120
H            2.82532269367761        1.16470672847494       -0.39734684652393
H            1.87310145265770       -0.98709973576420       -0.95990221290599
H            1.32638306689462       -1.84545016380033        1.33500908056709
H            1.32680015064285       -0.17323414870470        1.94010381557638
H            2.79989565563134       -0.86599140309347        1.24817583127329
H           -0.78052476500917        1.30861320661558       -0.67800990677555
H           -2.14093072094575       -0.27005603898800       -2.03294346536880
H           -2.64658747410426       -1.11331867311631       -0.55107224679199
H           -3.13580215309900        0.57024243441285       -0.82785535465913
H           -0.47093682547199        0.98304319699668        1.74825825687923
H           -1.48679800094157       -0.47720667058553        1.71084017597014
H           -2.19791217275021        1.12137487962103        1.40737470633386
