  6
 
 C         -0.4957448602        0.4381130767        0.0014183948
 C          0.4956620859       -0.4384925510        0.0011140289
 Cl         2.1332170023        0.0642935326       -0.0002915995
 Cl        -2.1333251792       -0.0647021356       -0.0003991588
 H         -0.3517571778        1.5069884032        0.0004294394
 H          0.3516214940       -1.5073654378       -0.0004972658
           6
        -14.36818591
 C         -0.4912129160        0.4436586423       -0.0001677520
 C          0.4912767777       -0.4435299571        0.0000075009
 Cl         2.1336827411        0.0413264760        0.0000158291
 Cl        -2.1337026131       -0.0413739828        0.0000267107
 H         -0.3353541466        1.5108838356        0.0005185545
 H          0.3352921170       -1.5107463000       -0.0001052070
