  6
 
 C         -0.6310000000        0.0860000000       -0.1910000000
 C          0.6320000000       -0.0860000000        0.1910000000
 Cl         1.2350000000        0.5010000000        1.6820000000
 Cl        -1.2350000000       -0.5000000000       -1.6820000000
 H         -1.3860000000        0.6000000000        0.3890000000
 H          1.3860000000       -0.6010000000       -0.3890000000
