 xtb: 6.7.1 (edcfbbe)
          04112511103D

 18 17  0     0  0            999 V2000
    2.3782   -0.1850   -0.6560 C   0  0  0  0  0  0  0  0  0  0  0  0
    1.5679    0.2886    0.5456 C   0  0  0  0  0  0  0  0  0  0  0  0
    0.2553   -0.4766    0.7238 C   0  0  0  0  0  0  0  0  0  0  0  0
   -0.8183   -0.0793   -0.2934 C   0  0  0  0  0  0  0  0  0  0  0  0
   -0.4120   -0.1830   -1.3120 H   0  0  0  0  0  0  0  0  0  0  0  0
   -2.0527   -0.9715   -0.1598 C   0  0  0  0  0  0  0  0  0  0  0  0
   -1.1394    1.2841   -0.0596 O   0  0  0  0  0  0  0  0  0  0  0  0
    1.8360   -0.0214   -1.5836 H   0  0  0  0  0  0  0  0  0  0  0  0
    2.6001   -1.2465   -0.5693 H   0  0  0  0  0  0  0  0  0  0  0  0
    3.3174    0.3596   -0.7129 H   0  0  0  0  0  0  0  0  0  0  0  0
    2.1690    0.1610    1.4481 H   0  0  0  0  0  0  0  0  0  0  0  0
    1.3386    1.3509    0.4441 H   0  0  0  0  0  0  0  0  0  0  0  0
    0.4399   -1.5485    0.6427 H   0  0  0  0  0  0  0  0  0  0  0  0
   -0.1452   -0.2678    1.7177 H   0  0  0  0  0  0  0  0  0  0  0  0
   -2.8090   -0.6927   -0.8903 H   0  0  0  0  0  0  0  0  0  0  0  0
   -1.7799   -2.0097   -0.3238 H   0  0  0  0  0  0  0  0  0  0  0  0
   -2.4747   -0.8697    0.8373 H   0  0  0  0  0  0  0  0  0  0  0  0
   -1.8462    1.5508   -0.6618 H   0  0  0  0  0  0  0  0  0  0  0  0
  1  2  1  0  0  0  0
  2  3  1  0  0  0  0
  3  4  1  0  0  0  0
  4  5  1  0  0  0  0
  4  6  1  0  0  0  0
  4  7  1  0  0  0  0
  1  8  1  0  0  0  0
  1  9  1  0  0  0  0
  1 10  1  0  0  0  0
  2 11  1  0  0  0  0
  2 12  1  0  0  0  0
  3 13  1  0  0  0  0
  3 14  1  0  0  0  0
  6 15  1  0  0  0  0
  6 16  1  0  0  0  0
  6 17  1  0  0  0  0
  7 18  1  0  0  0  0
M  END
