 xtb: 6.7.1 (edcfbbe)
          04112511303D

 26 25  0     0  0            999 V2000
   -1.6324    0.1617    1.5143 C   0  0  0  0  0  0  0  0  0  0  0  0
   -1.2701   -0.4607    0.1652 C   0  0  0  0  0  0  0  0  0  0  0  0
   -2.4956   -0.4002   -0.7496 C   0  0  0  0  0  0  0  0  0  0  0  0
   -0.0466    0.1808   -0.5370 C   0  0  0  0  0  0  0  0  0  0  0  0
    0.0677    1.6803   -0.2674 C   0  0  0  0  0  0  0  0  0  0  0  0
    1.2623   -0.5927   -0.2583 C   0  0  0  0  0  0  0  0  0  0  0  0
    2.4056   -0.0818   -1.1376 C   0  0  0  0  0  0  0  0  0  0  0  0
    1.7053   -0.5898    1.2030 C   0  0  0  0  0  0  0  0  0  0  0  0
   -2.4030   -0.4386    1.9943 H   0  0  0  0  0  0  0  0  0  0  0  0
   -0.7773    0.2088    2.1806 H   0  0  0  0  0  0  0  0  0  0  0  0
   -2.0242    1.1667    1.3833 H   0  0  0  0  0  0  0  0  0  0  0  0
   -1.0366   -1.5186    0.3340 H   0  0  0  0  0  0  0  0  0  0  0  0
   -2.3139   -0.9388   -1.6771 H   0  0  0  0  0  0  0  0  0  0  0  0
   -2.7390    0.6317   -0.9932 H   0  0  0  0  0  0  0  0  0  0  0  0
   -3.3579   -0.8466   -0.2593 H   0  0  0  0  0  0  0  0  0  0  0  0
   -0.2196    0.0676   -1.6149 H   0  0  0  0  0  0  0  0  0  0  0  0
   -0.8776    2.1700   -0.4884 H   0  0  0  0  0  0  0  0  0  0  0  0
    0.8260    2.1219   -0.9081 H   0  0  0  0  0  0  0  0  0  0  0  0
    0.3267    1.8854    0.7665 H   0  0  0  0  0  0  0  0  0  0  0  0
    1.0706   -1.6351   -0.5445 H   0  0  0  0  0  0  0  0  0  0  0  0
    2.7401    0.8983   -0.8082 H   0  0  0  0  0  0  0  0  0  0  0  0
    3.2523   -0.7623   -1.0803 H   0  0  0  0  0  0  0  0  0  0  0  0
    2.0936   -0.0128   -2.1773 H   0  0  0  0  0  0  0  0  0  0  0  0
    0.9718   -1.0801    1.8364 H   0  0  0  0  0  0  0  0  0  0  0  0
    1.8631    0.4239    1.5616 H   0  0  0  0  0  0  0  0  0  0  0  0
    2.6450   -1.1301    1.2992 H   0  0  0  0  0  0  0  0  0  0  0  0
  1  2  1  0  0  0  0
  2  3  1  0  0  0  0
  2  4  1  0  0  0  0
  4  5  1  0  0  0  0
  4  6  1  0  0  0  0
  6  7  1  0  0  0  0
  6  8  1  0  0  0  0
  1  9  1  0  0  0  0
  1 10  1  0  0  0  0
  1 11  1  0  0  0  0
  2 12  1  0  0  0  0
  3 13  1  0  0  0  0
  3 14  1  0  0  0  0
  3 15  1  0  0  0  0
  4 16  1  0  0  0  0
  5 17  1  0  0  0  0
  5 18  1  0  0  0  0
  5 19  1  0  0  0  0
  6 20  1  0  0  0  0
  7 21  1  0  0  0  0
  7 22  1  0  0  0  0
  7 23  1  0  0  0  0
  8 24  1  0  0  0  0
  8 25  1  0  0  0  0
  8 26  1  0  0  0  0
M  END
