21
 xtb: 6.7.1 (edcfbbe)
C            2.05844220619392       -0.96262195610562        0.19132139452425
C            1.20743322306733        0.08978173815084        0.90517433700373
C            0.15914824214783        0.82287079901999        0.06171191675397
H           -0.07966200257661        1.76057354781188        0.58841857293925
C           -1.18980105608344        0.11232744353990       -0.16100847312778
C           -1.09507371563281       -1.27009978394397       -0.80478276772530
C           -1.99310388572274        0.04631133841077        1.13901744529061
O            0.77967650194509        1.16064313787879       -1.20131574313625
H            1.46758041769572       -1.78796808142008       -0.21046327663022
H            2.78088869775285       -1.38641399749041        0.89659428699183
H            2.62672144101205       -0.52321340119696       -0.63295681945383
H            0.69646846329096       -0.36172553840877        1.76314496120104
H            1.88442493276277        0.84633549669091        1.32012880055590
H           -1.74108973800880        0.76812834636537       -0.85273039881637
H           -0.69907324024781       -2.00797642670162       -0.09943424075758
H           -2.09142522535876       -1.60980730280108       -1.10803402872426
H           -0.45893589537935       -1.26497021994932       -1.69557630202189
H           -3.00170316770740       -0.33274996984604        0.94440168192185
H           -2.08775400275131        1.03387701846277        1.60393920816204
H           -1.52289074155478       -0.62738208415502        1.86393589531071
H            0.14761402844206        1.70536762534340       -1.68828781934203
