 xtb: 6.7.1 (edcfbbe)
          04112512203D

 18 17  0     0  0            999 V2000
   -1.8236    0.9059   -0.5720 C   0  0  0  0  0  0  0  0  0  0  0  0
   -0.9438    0.6228    0.6411 C   0  0  0  0  0  0  0  0  0  0  0  0
    0.0484   -0.5377    0.4725 C   0  0  0  0  0  0  0  0  0  0  0  0
    0.5167   -0.6980    1.4505 H   0  0  0  0  0  0  0  0  0  0  0  0
   -0.6295   -1.8327    0.0334 C   0  0  0  0  0  0  0  0  0  0  0  0
    1.1806   -0.1771   -0.4940 C   0  0  0  0  0  0  0  0  0  0  0  0
    1.9261    0.8981    0.0446 O   0  0  0  0  0  0  0  0  0  0  0  0
   -2.4530    1.7696   -0.3705 H   0  0  0  0  0  0  0  0  0  0  0  0
   -1.2236    1.1257   -1.4511 H   0  0  0  0  0  0  0  0  0  0  0  0
   -2.4692    0.0603   -0.7923 H   0  0  0  0  0  0  0  0  0  0  0  0
   -1.5863    0.4012    1.4962 H   0  0  0  0  0  0  0  0  0  0  0  0
   -0.3653    1.5167    0.8835 H   0  0  0  0  0  0  0  0  0  0  0  0
   -0.9820   -1.7552   -0.9915 H   0  0  0  0  0  0  0  0  0  0  0  0
   -1.4757   -2.0484    0.6801 H   0  0  0  0  0  0  0  0  0  0  0  0
    0.0692   -2.6639    0.0912 H   0  0  0  0  0  0  0  0  0  0  0  0
    0.7671    0.0961   -1.4730 H   0  0  0  0  0  0  0  0  0  0  0  0
    1.8287   -1.0547   -0.6271 H   0  0  0  0  0  0  0  0  0  0  0  0
    2.6333    1.1353   -0.5690 H   0  0  0  0  0  0  0  0  0  0  0  0
  1  2  1  0  0  0  0
  2  3  1  0  0  0  0
  3  4  1  0  0  0  0
  3  5  1  0  0  0  0
  3  6  1  0  0  0  0
  6  7  1  0  0  0  0
  1  8  1  0  0  0  0
  1  9  1  0  0  0  0
  1 10  1  0  0  0  0
  2 11  1  0  0  0  0
  2 12  1  0  0  0  0
  5 13  1  0  0  0  0
  5 14  1  0  0  0  0
  5 15  1  0  0  0  0
  6 16  1  0  0  0  0
  6 17  1  0  0  0  0
  7 18  1  0  0  0  0
M  END
