 xtb: 6.7.1 (edcfbbe)
          04112511523D

 18 17  0     0  0            999 V2000
    1.5858   -1.1864   -0.6527 C   0  0  0  0  0  0  0  0  0  0  0  0
    1.0601   -0.2748    0.4555 C   0  0  0  0  0  0  0  0  0  0  0  0
    1.2382    1.1921    0.0744 C   0  0  0  0  0  0  0  0  0  0  0  0
   -0.3937   -0.6010    0.8288 C   0  0  0  0  0  0  0  0  0  0  0  0
   -1.4412   -0.3385   -0.2537 C   0  0  0  0  0  0  0  0  0  0  0  0
   -1.7689    1.0389   -0.2849 O   0  0  0  0  0  0  0  0  0  0  0  0
    2.6511   -1.0216   -0.7952 H   0  0  0  0  0  0  0  0  0  0  0  0
    1.0865   -0.9828   -1.5965 H   0  0  0  0  0  0  0  0  0  0  0  0
    1.4304   -2.2317   -0.3961 H   0  0  0  0  0  0  0  0  0  0  0  0
    1.6576   -0.4663    1.3553 H   0  0  0  0  0  0  0  0  0  0  0  0
    0.6808    1.4244   -0.8285 H   0  0  0  0  0  0  0  0  0  0  0  0
    2.2891    1.4126   -0.0995 H   0  0  0  0  0  0  0  0  0  0  0  0
    0.8725    1.8384    0.8684 H   0  0  0  0  0  0  0  0  0  0  0  0
   -0.6763   -0.0064    1.7000 H   0  0  0  0  0  0  0  0  0  0  0  0
   -0.4512   -1.6556    1.1042 H   0  0  0  0  0  0  0  0  0  0  0  0
   -1.0715   -0.6637   -1.2337 H   0  0  0  0  0  0  0  0  0  0  0  0
   -2.3407   -0.9234   -0.0156 H   0  0  0  0  0  0  0  0  0  0  0  0
   -2.4706    1.1862   -0.9318 H   0  0  0  0  0  0  0  0  0  0  0  0
  1  2  1  0  0  0  0
  2  3  1  0  0  0  0
  2  4  1  0  0  0  0
  4  5  1  0  0  0  0
  5  6  1  0  0  0  0
  1  7  1  0  0  0  0
  1  8  1  0  0  0  0
  1  9  1  0  0  0  0
  2 10  1  0  0  0  0
  3 11  1  0  0  0  0
  3 12  1  0  0  0  0
  3 13  1  0  0  0  0
  4 14  1  0  0  0  0
  4 15  1  0  0  0  0
  5 16  1  0  0  0  0
  5 17  1  0  0  0  0
  6 18  1  0  0  0  0
M  END
