 xtb: 6.7.1 (edcfbbe)
          04112511143D

 17 16  0     0  0            999 V2000
    1.7357    0.6326   -0.9523 C   0  0  0  0  0  0  0  0  0  0  0  0
    1.4137    0.0958    0.4407 C   0  0  0  0  0  0  0  0  0  0  0  0
    1.5921   -1.4199    0.4949 C   0  0  0  0  0  0  0  0  0  0  0  0
    0.0032    0.5130    0.8785 C   0  0  0  0  0  0  0  0  0  0  0  0
   -1.1184    0.1070   -0.0398 C   0  0  0  0  0  0  0  0  0  0  0  0
   -1.1077   -0.7827   -0.8623 O   0  0  0  0  0  0  0  0  0  0  0  0
   -2.1970    0.8545    0.1679 O   0  0  0  0  0  0  0  0  0  0  0  0
    1.6018    1.7113   -0.9896 H   0  0  0  0  0  0  0  0  0  0  0  0
    1.0831    0.1744   -1.6919 H   0  0  0  0  0  0  0  0  0  0  0  0
    2.7649    0.4034   -1.2159 H   0  0  0  0  0  0  0  0  0  0  0  0
    2.1115    0.5493    1.1537 H   0  0  0  0  0  0  0  0  0  0  0  0
    0.8971   -1.9041   -0.1858 H   0  0  0  0  0  0  0  0  0  0  0  0
    2.6044   -1.6896    0.2050 H   0  0  0  0  0  0  0  0  0  0  0  0
    1.4110   -1.7925    1.5005 H   0  0  0  0  0  0  0  0  0  0  0  0
   -0.0575    1.5962    0.9959 H   0  0  0  0  0  0  0  0  0  0  0  0
   -0.2242    0.0688    1.8514 H   0  0  0  0  0  0  0  0  0  0  0  0
   -2.9496    0.5944   -0.3974 H   0  0  0  0  0  0  0  0  0  0  0  0
  1  2  1  0  0  0  0
  2  3  1  0  0  0  0
  2  4  1  0  0  0  0
  4  5  1  0  0  0  0
  5  6  2  0  0  0  0
  5  7  1  0  0  0  0
  1  8  1  0  0  0  0
  1  9  1  0  0  0  0
  1 10  1  0  0  0  0
  2 11  1  0  0  0  0
  3 12  1  0  0  0  0
  3 13  1  0  0  0  0
  3 14  1  0  0  0  0
  4 15  1  0  0  0  0
  4 16  1  0  0  0  0
  7 17  1  0  0  0  0
M  END
