  6
 
 C         -0.6245679705        0.9583751961       -0.0003204988
 C          0.4170334756        0.1304716808       -0.0002562027
 Cl         2.0232411793        0.7357917414        0.0000176888
 Cl         0.2759180461       -1.5766309346        0.0003440181
 Cl        -2.2384365086        0.3999723451       -0.0001314765
 H         -0.5023797899        2.0294149379       -0.0002234628
           6
        -18.41206514
 C         -0.6273242359        0.9564320271       -0.0000530635
 C          0.4217772981        0.1380837134       -0.0001193945
 Cl         2.0224681848        0.7591622224        0.0000235498
 Cl         0.2977101475       -1.5699165803        0.0000098270
 Cl        -2.2358843238        0.3822783340        0.0000185178
 H         -0.5155781475        2.0285067119        0.0002297591
