  6
 
 C         -0.2420000000        0.3060000000        0.5890000000
 C          0.2370000000       -0.3830000000       -0.4500000000
 Cl         0.7820000000       -2.0180000000       -0.3330000000
 Cl         0.3330000000        0.3690000000       -2.0050000000
 Cl        -0.7980000000        1.9270000000        0.5400000000
 H         -0.3290000000       -0.1030000000        1.5870000000
