 xtb: 6.7.1 (edcfbbe)
          04112511193D

 14 13  0     0  0            999 V2000
   -1.4444    0.0801    0.6278 C   0  0  0  0  0  0  0  0  0  0  0  0
    0.0612    0.3495    0.5137 C   0  0  0  0  0  0  0  0  0  0  0  0
    0.7970   -0.8835   -0.0256 C   0  0  0  0  0  0  0  0  0  0  0  0
    2.1929   -0.7174    0.0039 O   0  0  0  0  0  0  0  0  0  0  0  0
    0.3645    1.4130   -0.3641 O   0  0  0  0  0  0  0  0  0  0  0  0
   -1.9460   -0.3442   -0.6196 O   0  0  0  0  0  0  0  0  0  0  0  0
   -1.9481    1.0016    0.9514 H   0  0  0  0  0  0  0  0  0  0  0  0
   -1.5951   -0.6916    1.3929 H   0  0  0  0  0  0  0  0  0  0  0  0
    0.4450    0.5787    1.5211 H   0  0  0  0  0  0  0  0  0  0  0  0
    0.4464   -1.0713   -1.0474 H   0  0  0  0  0  0  0  0  0  0  0  0
    0.5769   -1.7509    0.5983 H   0  0  0  0  0  0  0  0  0  0  0  0
    2.4046    0.0894   -0.4885 H   0  0  0  0  0  0  0  0  0  0  0  0
   -0.1564    2.1931   -0.1308 H   0  0  0  0  0  0  0  0  0  0  0  0
   -2.8936   -0.5201   -0.5415 H   0  0  0  0  0  0  0  0  0  0  0  0
  1  2  1  0  0  0  0
  2  3  1  0  0  0  0
  3  4  1  0  0  0  0
  2  5  1  0  0  0  0
  1  6  1  0  0  0  0
  1  7  1  0  0  0  0
  1  8  1  0  0  0  0
  2  9  1  0  0  0  0
  3 10  1  0  0  0  0
  3 11  1  0  0  0  0
  4 12  1  0  0  0  0
  5 13  1  0  0  0  0
  6 14  1  0  0  0  0
M  END
