  14
 
 C          2.4572335916        0.0003057328       -0.0054970663
 C          0.9614631322        0.0000959139       -0.0146388345
 C          0.2379331266       -1.1877854537       -0.0083579455
 C         -1.1460668276       -1.1314534427        0.0036006932
 N         -1.8305707539       -0.0002697557        0.0099160200
 C         -1.1463767346        1.1311098086        0.0036962194
 C          0.2376028719        1.1877797183       -0.0084747243
 H          2.8171806806        0.0000863797        1.0241126698
 H          2.8485442071       -0.8862087007       -0.4991076918
 H          2.8483113544        0.8871603516       -0.4986840632
 H          0.7472231446       -2.1401960891       -0.0142019075
 H         -1.7397912458       -2.0366066635        0.0086728672
 H         -1.7403644584        2.0360816429        0.0077203322
 H          0.7466089480        2.1403439276       -0.0149001174
          14
        -19.32249147
 C          2.4553614013       -0.0000522636       -0.0059379441
 C          0.9595677702       -0.0002713950        0.0088294538
 C          0.2356386483       -1.1878441919        0.0051228237
 C         -1.1482200582       -1.1308744335       -0.0015934396
 N         -1.8326238188        0.0002294848       -0.0047809368
 C         -1.1478177456        1.1311212577       -0.0015231896
 C          0.2360248657        1.1875857982        0.0050934423
 H          2.8117721609        0.0094407108       -1.0366134049
 H          2.8481784437        0.8823749480        0.4939567069
 H          2.8484706108       -0.8910080440        0.4782052610
 H          0.7443982974       -2.1404121378        0.0093159103
 H         -1.7426599795       -2.0355526462       -0.0032951971
 H         -1.7419374500        2.0360134942       -0.0033596616
 H          0.7451794024        2.1399494113        0.0091675934
