 14

C      2.347000     0.898000     1.044000
C      1.388000    -0.068000     1.652000
C      0.227000    -0.420000     0.973000
C     -0.632000    -1.322000     1.580000
N     -0.409000    -1.882000     2.791000
C      0.730000    -1.516000     3.421000
C      1.652000    -0.623000     2.900000
H      3.086000     0.363000     0.441000
H      1.824000     1.619000     0.407000
H      2.869000     1.470000     1.819000
H     -0.008000    -0.006000    -0.002000
H     -1.550000    -1.630000     1.092000
H      0.889000    -1.976000     4.390000
H      2.549000    -0.368000     3.454000
