 xtb: 6.7.1 (edcfbbe)
          04112512353D

 22 22  0     0  0            999 V2000
   -2.9748    0.8436   -1.0245 C   0  0  0  0  0  0  0  0  0  0  0  0
   -2.9926    0.3958    0.4314 C   0  0  0  0  0  0  0  0  0  0  0  0
   -2.0922   -0.8238    0.6723 C   0  0  0  0  0  0  0  0  0  0  0  0
   -0.6460   -0.5008    0.4258 C   0  0  0  0  0  0  0  0  0  0  0  0
   -0.0059   -0.8979   -0.7395 C   0  0  0  0  0  0  0  0  0  0  0  0
    1.3176   -0.5715   -0.9771 C   0  0  0  0  0  0  0  0  0  0  0  0
    2.0293    0.1682   -0.0418 C   0  0  0  0  0  0  0  0  0  0  0  0
    1.3983    0.5715    1.1314 C   0  0  0  0  0  0  0  0  0  0  0  0
    0.0783    0.2376    1.3554 C   0  0  0  0  0  0  0  0  0  0  0  0
    3.3345    0.5183   -0.2235 O   0  0  0  0  0  0  0  0  0  0  0  0
   -1.9658    1.1174   -1.3249 H   0  0  0  0  0  0  0  0  0  0  0  0
   -3.3221    0.0430   -1.6738 H   0  0  0  0  0  0  0  0  0  0  0  0
   -3.6225    1.7056   -1.1650 H   0  0  0  0  0  0  0  0  0  0  0  0
   -4.0146    0.1420    0.7204 H   0  0  0  0  0  0  0  0  0  0  0  0
   -2.6579    1.2182    1.0669 H   0  0  0  0  0  0  0  0  0  0  0  0
   -2.4068   -1.6351    0.0136 H   0  0  0  0  0  0  0  0  0  0  0  0
   -2.2183   -1.1540    1.7057 H   0  0  0  0  0  0  0  0  0  0  0  0
   -0.5466   -1.4735   -1.4765 H   0  0  0  0  0  0  0  0  0  0  0  0
    1.7962   -0.8931   -1.8913 H   0  0  0  0  0  0  0  0  0  0  0  0
    1.9621    1.1431    1.8521 H   0  0  0  0  0  0  0  0  0  0  0  0
   -0.3982    0.5541    2.2718 H   0  0  0  0  0  0  0  0  0  0  0  0
    3.6607    0.1784   -1.0700 H   0  0  0  0  0  0  0  0  0  0  0  0
  1  2  1  0  0  0  0
  2  3  1  0  0  0  0
  3  4  1  0  0  0  0
  4  5  4  0  0  0  0
  5  6  4  0  0  0  0
  6  7  4  0  0  0  0
  7  8  4  0  0  0  0
  4  9  4  0  0  0  0
  8  9  4  0  0  0  0
  7 10  1  0  0  0  0
  1 11  1  0  0  0  0
  1 12  1  0  0  0  0
  1 13  1  0  0  0  0
  2 14  1  0  0  0  0
  2 15  1  0  0  0  0
  3 16  1  0  0  0  0
  3 17  1  0  0  0  0
  5 18  1  0  0  0  0
  6 19  1  0  0  0  0
  8 20  1  0  0  0  0
  9 21  1  0  0  0  0
 10 22  1  0  0  0  0
M  END
