 xtb: 6.7.1 (edcfbbe)
          04112511193D

 14 13  0     0  0            999 V2000
   -1.2938    0.0198    0.5899 C   0  0  0  0  0  0  0  0  0  0  0  0
    0.0918    0.6839    0.6420 C   0  0  0  0  0  0  0  0  0  0  0  0
    1.2137   -0.3752    0.6834 C   0  0  0  0  0  0  0  0  0  0  0  0
    1.2261   -1.1893   -0.4704 O   0  0  0  0  0  0  0  0  0  0  0  0
    0.2612    1.5334   -0.4752 O   0  0  0  0  0  0  0  0  0  0  0  0
   -1.5160   -0.5750   -0.6678 O   0  0  0  0  0  0  0  0  0  0  0  0
   -2.0727    0.7769    0.7064 H   0  0  0  0  0  0  0  0  0  0  0  0
   -1.3854   -0.7124    1.4000 H   0  0  0  0  0  0  0  0  0  0  0  0
    0.1720    1.3041    1.5410 H   0  0  0  0  0  0  0  0  0  0  0  0
    1.0525   -1.0427    1.5318 H   0  0  0  0  0  0  0  0  0  0  0  0
    2.1771    0.1306    0.8076 H   0  0  0  0  0  0  0  0  0  0  0  0
    1.5223   -0.6495   -1.2175 H   0  0  0  0  0  0  0  0  0  0  0  0
   -0.3173    1.1978   -1.1816 H   0  0  0  0  0  0  0  0  0  0  0  0
   -0.8313   -1.2549   -0.8005 H   0  0  0  0  0  0  0  0  0  0  0  0
  1  2  1  0  0  0  0
  2  3  1  0  0  0  0
  3  4  1  0  0  0  0
  2  5  1  0  0  0  0
  1  6  1  0  0  0  0
  1  7  1  0  0  0  0
  1  8  1  0  0  0  0
  2  9  1  0  0  0  0
  3 10  1  0  0  0  0
  3 11  1  0  0  0  0
  4 12  1  0  0  0  0
  5 13  1  0  0  0  0
  6 14  1  0  0  0  0
M  END
