  14
 
 C          1.8850000000       -1.0360000000       -0.1120000000
 C          2.9210000000       -1.6310000000        0.6080000000
 C          2.8780000000       -1.6520000000        2.0020000000
 C          1.8000000000       -1.0790000000        2.6760000000
 C          0.7640000000       -0.4840000000        1.9550000000
 C          0.8070000000       -0.4630000000        0.5610000000
 N         -0.2400000000        0.1380000000       -0.1680000000
 Cl         4.1550000000       -2.3870000000        2.8910000000
 H          1.9290000000       -1.0260000000       -1.1980000000
 H          3.7550000000       -2.0750000000        0.0710000000
 H          1.7530000000       -1.0880000000        3.7620000000
 H         -0.0720000000       -0.0400000000        2.4900000000
 H         -1.0300000000        0.5040000000        0.3240000000
 H         -0.2210000000        0.1050000000       -1.1670000000
