  17
 
 C          2.8839022259        0.0490451750       -0.0075822326
 C          1.3888923346       -0.0127287623       -0.0155111012
 C          0.7083906933       -1.2239098991        0.0660737985
 C         -0.6734439245       -1.2304652250        0.0688234858
 C         -1.3549124622       -0.0180121574       -0.0115974900
 N         -0.7103596616        1.1376544691       -0.0878828601
 C          0.6100499955        1.1359257622       -0.0885779663
 C         -2.8508804360        0.0388494114       -0.0131936541
 H          3.2544921216       -0.0051579178        1.0166996549
 H          3.3069630219       -0.7864682192       -0.5618013821
 H          3.2342101272        0.9803834758       -0.4461790400
 H          1.2605203807       -2.1522574278        0.1238303396
 H         -1.2217771323       -2.1590161255        0.1291324090
 H          1.0729703720        2.1132452093       -0.1554293920
 H         -3.2406698401       -0.2892016415        0.9496476983
 H         -3.1744253027        1.0597260794       -0.1951922752
 H         -3.2571556900       -0.6146247818       -0.7832100959
          17
        -22.49436412
 C          2.8852353082        0.0641802468        0.0008745421
 C          1.3901461068        0.0054829376        0.0000389354
 C          0.7139383889       -1.2121972176       -0.0004120020
 C         -0.6668940839       -1.2247782645       -0.0005669607
 C         -1.3533333709       -0.0113066008        0.0001985207
 N         -0.7138453662        1.1486800896       -0.0003300079
 C          0.6075505249        1.1524931111       -0.0007068929
 C         -2.8496314615        0.0377469907        0.0009006278
 H          3.2846155095       -0.4553212314        0.8713065749
 H          3.2840894860       -0.4220205617       -0.8889776629
 H          3.2315211937        1.0944579268        0.0197754184
 H          1.2713666779       -2.1392159942       -0.0004091429
 H         -1.2125178401       -2.1568884842       -0.0005952391
 H          1.0655945977        2.1344288007       -0.0009029700
 H         -3.1779766713        1.0726919807        0.0272021833
 H         -3.2440056300       -0.4408031748       -0.8946434763
 H         -3.2461303088       -0.4886981307        0.8679363278
