  17
 
 C          2.8860000000       -0.2680000000        3.6510000000
 C          1.6520000000       -0.6230000000        2.9000000000
 C          1.3880000000       -0.0680000000        1.6520000000
 C          0.2270000000       -0.4200000000        0.9730000000
 C         -0.6320000000       -1.3220000000        1.5800000000
 N         -0.4090000000       -1.8820000000        2.7910000000
 C          0.7300000000       -1.5160000000        3.4210000000
 C         -1.8870000000       -1.7230000000        0.8800000000
 H          3.6950000000       -0.9570000000        3.3880000000
 H          3.2030000000        0.7540000000        3.4210000000
 H          2.7140000000       -0.3190000000        4.7310000000
 H          2.0810000000        0.6370000000        1.2010000000
 H          0.0080000000        0.0060000000        0.0000000000
 H          0.8830000000       -1.9810000000        4.3900000000
 H         -1.7080000000       -2.6030000000        0.2510000000
 H         -2.6830000000       -1.9620000000        1.5970000000
 H         -2.2640000000       -0.9110000000        0.2450000000
