24
 xtb: 6.7.1 (edcfbbe)
C            4.52596449837887        0.21311656417678        0.18464609632221
N            3.07818618943962        0.33867139932853        0.32908961422522
C            2.63774213217258        1.34406110649901        1.29281918222255
C            2.24617012155988       -0.44046563488729       -0.37835812554216
O            2.61838702823423       -1.32069977097205       -1.17879764915246
C            0.76940005179026       -0.23973389683727       -0.20398603354470
C            0.10357919613640        0.72790229885914       -0.96032196405456
C           -1.27485835230688        0.84625833351637       -0.87718220192701
C           -1.96505750188266       -0.01428557215765       -0.02851551574809
C           -1.32278704184470       -0.98750244369043        0.73158508009251
C            0.05500505112665       -1.09910967609403        0.63401997614013
N           -3.41926683953900        0.11079334534655        0.07075555826706
O           -3.97829216286899        0.97454472595759       -0.60423844001200
O           -4.02049698532502       -0.65235283735868        0.82584208793900
H            4.95007783475494        1.17699226428242       -0.11631936521379
H            4.76309054220775       -0.53648987994475       -0.56895841894172
H            4.97094415712068       -0.08059163381660        1.14144359947181
H            2.95375141969149        2.34098310730558        0.96644454134016
H            3.08896005824384        1.13595108971478        2.26901353541562
H            1.55379251666905        1.33323551898744        1.39967562696072
H            0.66515895948939        1.39121966684139       -1.60963986056930
H           -1.80380796023849        1.59261097274421       -1.45573175216193
H           -1.88752423973865       -1.64083410280231        1.38396270066308
H            0.57968109709522       -1.84996407146647        1.21517674140778
