19
CONF1
C 2.4899582493 0.7873522475 0.3330782430
C 1.2446803061 -0.0895747716 0.2329007388
C 1.4121631597 -1.1359189453 -0.8669237507
C 0.0069554940 0.7709448704 -0.0400297382
C -1.2956851274 0.0325185791 0.1415034426
O -1.3974642151 -0.9782953091 0.8091125461
C -2.4699849370 0.6522371735 -0.5605982052
H 2.6455288228 1.3301694860 -0.5965979278
H 2.3928369838 1.5064628930 1.1429166082
H 3.3676519240 0.1749964768 0.5233945508
H 1.0918171397 -0.6094974342 1.1850150593
H 1.5499532564 -0.6549256347 -1.8331181791
H 0.5341727520 -1.7764796898 -0.9163637581
H 2.2782230948 -1.7618041252 -0.6671170949
H 0.0487845157 1.1940147527 -1.0442290140
H -0.0175408789 1.6050867507 0.6671680632
H -2.4640673352 1.7305420510 -0.4347060478
H -2.3862176243 0.4348590975 -1.6237238649
H -3.3994378488 0.2299238970 -0.1888505915
19
CONF4
C 2.4400586299 0.9433217058 -0.1485061762
C 1.1730977217 0.2272599822 0.3131316806
C 1.3987722609 -1.2820686871 0.3561740176
C 0.0096226005 0.5649900367 -0.6343328022
C -1.3081905299 -0.0152519736 -0.1884287858
O -1.9369555401 -0.7906389135 -0.8845205620
C -1.8005559895 0.4198919813 1.1613731176
H 2.2965379810 2.0208200559 -0.1477708929
H 3.2681397686 0.7061235938 0.5144845061
H 2.7075158655 0.6316920118 -1.1555121316
H 0.9247790906 0.5783807911 1.3185863558
H 2.1904391860 -1.5296608351 1.0589667200
H 1.6848722322 -1.6491116122 -0.6271995580
H 0.4923369338 -1.8036984009 0.6573597678
H 0.2325478188 0.1886839796 -1.6349569627
H -0.1040619070 1.6494466736 -0.6873665885
H -2.8670067909 0.2289614294 1.2456977165
H -1.2882888784 -0.1664736013 1.9221122697
H -1.5852075768 1.4690666075 1.3349957000
19
CONF5
C 1.4921871771 -0.9432728440 0.7523112206
C 1.0848342113 -0.2471090187 -0.5433512600
C 2.2948084948 0.4141321954 -1.1988012303
C 0.0008196996 0.8123654360 -0.2698667915
C -1.2525581417 0.2213759592 0.3254519759
O -1.5762136660 0.4300810634 1.4797323947
C -2.0744234093 -0.6371062627 -0.5903862187
H 2.2370449989 -1.7101891949 0.5546725829
H 1.9148818988 -0.2243102374 1.4507974868
H 0.6333910057 -1.4101242078 1.2307745039
H 0.6827221235 -0.9931444575 -1.2352583172
H 2.7124246112 1.1759166783 -0.5445895068
H 2.0163357078 0.8819150979 -2.1396809859
H 3.0652461883 -0.3265667178 -1.3972502011
H -0.2551019431 1.3058756777 -1.2078444493
H 0.3964662308 1.5536981166 0.4271742385
H -2.3037833222 -0.0940436039 -1.5027494430
H -1.5051077342 -1.5231379648 -0.8610587223
H -2.9932158684 -0.9391819629 -0.0953084120
19
CONF3
C 2.4714239957 0.8425180108 0.2990569649
C 1.2456533799 -0.0662312377 0.2494271257
C 1.4744515132 -1.2214423828 -0.7229927618
C 0.0063629973 0.7366387808 -0.1562606295
C -1.2995625454 0.0293773797 0.0928695556
O -1.3802296536 -1.0453387358 0.6560823488
C -2.5218452467 0.7655585487 -0.3854377895
H 2.3337295181 1.6394598585 1.0258916074
H 3.3525331351 0.2718979499 0.5810120502
H 2.6505345048 1.2892840288 -0.6762684653
H 1.0673601379 -0.4854203600 1.2459722528
H 0.6061542617 -1.8760922467 -0.7413221509
H 2.3371390158 -1.8090784049 -0.4188895406
H 1.6509050934 -0.8443879521 -1.7284058813
H 0.0578540588 0.9991350647 -1.2150637908
H -0.0346241328 1.6733892665 0.4062098851
H -3.1355028212 1.0173975714 0.4773593132
H -2.2659097294 1.6676232668 -0.9290996672
H -3.1137776982 0.1037934085 -1.0138196655
19
CONF2
C 2.3958424746 0.9941005769 -0.0788202959
C 1.1593737448 0.1788499038 0.2923025408
C 1.4680628954 -1.3145652403 0.2447370865
C -0.0006246076 0.5261160932 -0.6656419005
C -1.2979244702 -0.0391994558 -0.1484282764
O -1.6957830477 -1.1465019387 -0.4586562238
C -2.0549021648 0.8530993378 0.7894852370
H 2.1974108268 2.0593847011 0.0065968855
H 3.2206411353 0.7434124185 0.5833154225
H 2.6981890560 0.7787939867 -1.1008355656
H 0.8605814784 0.4421778397 1.3127302941
H 0.5711119939 -1.9017479104 0.4305814494
H 2.2113136153 -1.5738700141 0.9945783918
H 1.8549936287 -1.5893815007 -0.7341334139
H 0.2156551427 0.0957236966 -1.6444830697
H -0.0820833847 1.6090643814 -0.7493304502
H -2.5149115846 1.6487719832 0.2063322745
H -2.8340573343 0.2955141345 1.3016805737
H -1.3790918992 1.3105471147 1.5061150499
19
CONF6
C 1.5461870896 -0.8228763148 0.8363636183
C 1.0751408800 -0.2796699571 -0.5099953121
C 2.2493462899 0.3014363616 -1.2938252907
C -0.0021590404 0.8029194268 -0.3055477902
C -1.2475074863 0.2312938938 0.3180996265
O -1.5609511561 0.4664352629 1.4706466520
C -2.0839890273 -0.6513980832 -0.5640923365
H 2.0139648413 -0.0335787011 1.4208982455
H 0.7095582210 -1.2158909136 1.4105765225
H 2.2708067711 -1.6203811055 0.6920634212
H 0.6432696243 -1.1032303078 -1.0869481051
H 3.0137591370 -0.4572713161 -1.4405901786
H 2.6920119282 1.1338243547 -0.7519919107
H 1.9255867552 0.6569514382 -2.2686051993
H -0.2640944029 1.2337905749 -1.2727790687
H 0.3939369707 1.5857957978 0.3436717086
H -3.0649800550 -0.1933528140 -0.6760663463
H -1.6352242412 -0.7955223585 -1.5399335258
H -2.2364958820 -1.6105681524 -0.0736582530
19
CONF7
C 1.4763216538 0.9125474250 -0.9472134427
C 1.3839191124 0.1205344081 0.3550750862
C 1.6598687391 -1.3593517762 0.1083759110
C 0.0129102363 0.3308243560 1.0354375056
C -1.1428945658 -0.0004937753 0.1213103410
O -1.3939144047 -1.1377704813 -0.2304210599
C -1.9713070772 1.1708964627 -0.3162998027
H 1.2652645602 1.9654356930 -0.7757888650
H 2.4767376916 0.8295721824 -1.3648903880
H 0.7697086701 0.5246816776 -1.6784920991
H 2.1428772467 0.5024880062 1.0468437663
H 1.6897120064 -1.9065810054 1.0477865018
H 2.6146465793 -1.4866942461 -0.3958958234
H 0.8800906571 -1.7944934899 -0.5128872615
H -0.0671603231 1.3643324510 1.3689574644
H -0.0392655353 -0.3320600461 1.9012375809
H -1.3321207827 1.9301993814 -0.7587895806
H -2.7295059703 0.8569018020 -1.0286852272
H -2.4518460512 1.6053854756 0.5577355751
19
CONF9
C 1.9167147212 0.7364605799 -0.7038754440
C 1.3680556420 0.0200514843 0.5283755793
C 1.4072837056 -1.4953304319 0.3412441139
C -0.0501378958 0.4961522059 0.8747839395
C -1.1395763372 0.1659184647 -0.1165166467
O -0.9462745643 -0.2067415529 -1.2562932736
C -2.5293860431 0.3386182574 0.4331288615
H 1.9248001892 1.8135159734 -0.5507828648
H 2.9339505910 0.4106521825 -0.9069976402
H 1.3039567252 0.5138614962 -1.5733223102
H 2.0070111748 0.2750718808 1.3826692653
H 2.4270698298 -1.8274048119 0.1636142047
H 0.7999845470 -1.7856095092 -0.5128143846
H 1.0289893884 -2.0023802906 1.2262307595
H -0.0463806016 1.5857274763 0.9702514307
H -0.3470126784 0.0911302208 1.8439063646
H -2.5963011671 1.2303812739 1.0481431414
H -3.2510331214 0.3797392462 -0.3781499543
H -2.7584278115 -0.5235446455 1.0567977920
19
CONF8
C 1.8000772751 -0.0502960105 1.0523515760
C 1.1373863657 -0.4230970132 -0.2705052574
C 2.1512050727 -0.3605470603 -1.4112143720
C -0.0514947158 0.5066125355 -0.5814264004
C -1.2752340467 0.2007008261 0.2490649987
O -1.2438206033 0.0792507696 1.4586518599
C -2.5469554716 0.0507326718 -0.5332978017
H 2.5897428792 -0.7577931672 1.2939268895
H 2.2352478828 0.9450977717 0.9904576488
H 1.0696638302 -0.0602527545 1.8572754039
H 0.7590876246 -1.4490390126 -0.1920400478
H 1.7026221891 -0.6823711473 -2.3477311500
H 2.9967052590 -1.0088767112 -1.1959922786
H 2.5196325459 0.6552897847 -1.5332527272
H -0.3056056936 0.4370667345 -1.6382464432
H 0.2475981103 1.5350297850 -0.3649684328
H -3.3908202459 -0.0969807519 0.1349741666
H -2.7052882791 0.9347506402 -1.1455408463
H -2.4529796146 -0.8055289917 -1.1974693716
19
CONF10
C 1.5911691978 0.7533590356 -0.9725997370
C 1.3917557400 0.1293878788 0.4072996569
C 1.6749347723 -1.3699487293 0.3716622858
C -0.0198383342 0.4368421596 0.9390048180
C -1.1542143118 0.0451140497 0.0201325190
O -1.1866284568 -0.9939986891 -0.6093817264
C -2.2718216763 1.0462908058 -0.0447700439
H 2.6128589198 0.6024760453 -1.3117003376
H 0.9210103446 0.2924438090 -1.6955366461
H 1.3922548909 1.8223070072 -0.9448956201
H 2.1015004361 0.5951158566 1.1010795284
H 2.6829930310 -1.5540942635 0.0075628676
H 0.9715713494 -1.8717872767 -0.2876980656
H 1.5838983003 -1.8017559935 1.3660394083
H -0.0981025368 1.5000580414 1.1649672916
H -0.1707581371 -0.1179131986 1.8692218461
H -3.1115939555 0.6427605992 -0.6038830873
H -2.5848550965 1.3191968618 0.9593319998
H -1.9072991876 1.9439365613 -0.5399966912
19
CONF11
C 1.8762833627 1.2373735281 0.1093135653
C 1.1505117502 -0.1054597105 0.1247574010
C 2.1034132428 -1.2243719135 -0.2896832394
C -0.0891689494 -0.0793586914 -0.8092351175
C -1.3483417418 -0.0588411789 0.0183544890
O -1.9590983084 -1.0787347439 0.2803236704
C -1.7760375434 1.2846721977 0.5280178505
H 2.7095491211 1.2201602551 0.8076892867
H 2.2667686099 1.4395759889 -0.8852880151
H 1.2130851725 2.0503812792 0.3921836692
H 0.8128805427 -0.3133739743 1.1472559499
H 2.4504134829 -1.0690028260 -1.3085278750
H 1.6061916339 -2.1898980521 -0.2331522723
H 2.9677705389 -1.2464363916 0.3698050355
H -0.1014379156 -0.9801901095 -1.4231417209
H -0.0466676738 0.7947499399 -1.4558931766
H -2.6480118216 1.1866183908 1.1688224565
H -0.9600496033 1.7421992155 1.0813040812
H -2.0123387407 1.9285099909 -0.3156924954
