  24
 
 C         -1.8850000000       -1.7020000000        0.9270000000
 C         -0.4970000000       -2.0340000000        0.4940000000
 C          0.3500000000       -1.0280000000        0.0390000000
 C          1.6480000000       -1.3370000000       -0.3660000000
 C          2.1170000000       -2.6600000000       -0.3220000000
 C          3.4210000000       -2.9900000000       -0.7270000000
 C          3.8690000000       -4.3100000000       -0.6760000000
 C          3.0230000000       -5.3170000000       -0.2210000000
 C          1.7240000000       -5.0070000000        0.1850000000
 C          1.2560000000       -3.6840000000        0.1400000000
 C         -0.0480000000       -3.3540000000        0.5450000000
 C          2.5070000000       -0.2070000000       -0.8450000000
 H         -1.8970000000       -1.4680000000        1.9960000000
 H         -2.2730000000       -0.8420000000        0.3720000000
 H         -2.5630000000       -2.5420000000        0.7410000000
 H         -0.0030000000        0.0010000000        0.0010000000
 H          4.1120000000       -2.2320000000       -1.0880000000
 H          4.8800000000       -4.5520000000       -0.9910000000
 H          3.3730000000       -6.3440000000       -0.1820000000
 H          1.0800000000       -5.8100000000        0.5370000000
 H         -0.7210000000       -4.1320000000        0.9020000000
 H          3.0580000000        0.2280000000       -0.0050000000
 H          3.2240000000       -0.5510000000       -1.5980000000
 H          1.8990000000        0.5760000000       -1.3120000000
