 xtb: 6.7.1 (edcfbbe)
          04112511553D

 24 24  0     0  0            999 V2000
   -2.6951   -1.1343   -0.0235 C   0  0  0  0  0  0  0  0  0  0  0  0
   -2.4090    0.3616   -0.0787 C   0  0  0  0  0  0  0  0  0  0  0  0
   -0.9650    0.7057   -0.4503 C   0  0  0  0  0  0  0  0  0  0  0  0
    0.0684    0.2481    0.5913 C   0  0  0  0  0  0  0  0  0  0  0  0
    0.6928   -1.1197    0.2513 C   0  0  0  0  0  0  0  0  0  0  0  0
    2.0678   -0.8344   -0.3848 C   0  0  0  0  0  0  0  0  0  0  0  0
    2.1609    0.6886   -0.5035 C   0  0  0  0  0  0  0  0  0  0  0  0
    1.2825    1.1836    0.6395 C   0  0  0  0  0  0  0  0  0  0  0  0
   -2.4680   -1.6022   -0.9789 H   0  0  0  0  0  0  0  0  0  0  0  0
   -2.1006   -1.6147    0.7488 H   0  0  0  0  0  0  0  0  0  0  0  0
   -3.7460   -1.3063    0.1986 H   0  0  0  0  0  0  0  0  0  0  0  0
   -3.0724    0.8197   -0.8167 H   0  0  0  0  0  0  0  0  0  0  0  0
   -2.6417    0.8072    0.8917 H   0  0  0  0  0  0  0  0  0  0  0  0
   -0.7300    0.2692   -1.4224 H   0  0  0  0  0  0  0  0  0  0  0  0
   -0.9042    1.7915   -0.5574 H   0  0  0  0  0  0  0  0  0  0  0  0
   -0.4225    0.2195    1.5679 H   0  0  0  0  0  0  0  0  0  0  0  0
    0.8131   -1.7162    1.1561 H   0  0  0  0  0  0  0  0  0  0  0  0
    0.0566   -1.6811   -0.4295 H   0  0  0  0  0  0  0  0  0  0  0  0
    2.8642   -1.2041    0.2618 H   0  0  0  0  0  0  0  0  0  0  0  0
    2.1757   -1.3209   -1.3533 H   0  0  0  0  0  0  0  0  0  0  0  0
    3.1868    1.0470   -0.4299 H   0  0  0  0  0  0  0  0  0  0  0  0
    1.7491    1.0231   -1.4561 H   0  0  0  0  0  0  0  0  0  0  0  0
    1.8082    1.0535    1.5873 H   0  0  0  0  0  0  0  0  0  0  0  0
    1.0094    2.2332    0.5404 H   0  0  0  0  0  0  0  0  0  0  0  0
  1  2  1  0  0  0  0
  2  3  1  0  0  0  0
  3  4  1  0  0  0  0
  4  5  1  0  0  0  0
  5  6  1  0  0  0  0
  6  7  1  0  0  0  0
  4  8  1  0  0  0  0
  7  8  1  0  0  0  0
  1  9  1  0  0  0  0
  1 10  1  0  0  0  0
  1 11  1  0  0  0  0
  2 12  1  0  0  0  0
  2 13  1  0  0  0  0
  3 14  1  0  0  0  0
  3 15  1  0  0  0  0
  4 16  1  0  0  0  0
  5 17  1  0  0  0  0
  5 18  1  0  0  0  0
  6 19  1  0  0  0  0
  6 20  1  0  0  0  0
  7 21  1  0  0  0  0
  7 22  1  0  0  0  0
  8 23  1  0  0  0  0
  8 24  1  0  0  0  0
M  END
