23
 xtb: 6.7.1 (edcfbbe)
C            2.70684717428172        0.36487774214535        0.49044110793280
C            1.25236934292877        0.08558454638271        0.86762329011571
C            0.26997054661228        0.08524122612893       -0.31655492472820
H            0.26509897625619        1.10009655571593       -0.74700893199008
C            0.72984906743836       -0.89261238527888       -1.40158498202943
C           -1.17503487768805       -0.22268664400228        0.14413476100411
C           -1.64280342084194        0.71076530319382        1.26620888638067
C           -2.17460474890499       -0.14024690723117       -1.01454414062503
H            3.15097095953863       -0.45065627173545       -0.08741534272686
H            2.78863723635888        1.28184408847202       -0.10519890966684
H            3.31795040138628        0.49834692017799        1.38919805726470
H            0.93852144420802        0.84463096601594        1.59093508611490
H            1.18459955225177       -0.88380213645649        1.38245326428019
H            1.73490944121233       -0.65005635631742       -1.75745537649318
H            0.75056440985770       -1.91788580149461       -1.00978946923732
H            0.07097532117160       -0.87683002392054       -2.27325960579737
H           -1.18117821228070       -1.25352808966237        0.53086408215922
H           -1.07855389118004        0.57406050440578        2.19192241312909
H           -2.69766423548324        0.52859142573086        1.49687144914380
H           -1.54576945820037        1.76022509784490        0.96115955907834
H           -3.19486602521184       -0.30462834009449       -0.65191231938685
H           -1.98165990294883       -0.88271196913125       -1.79305243748565
H           -2.14191113117473        0.85378089244272       -1.47845732699771
