 xtb: 6.7.1 (edcfbbe)
          04112512423D

 17 16  0     0  0            999 V2000
   -2.6770   -0.0478    0.8004 C   0  0  0  0  0  0  0  0  0  0  0  0
   -1.7223    0.6675   -0.1516 C   0  0  0  0  0  0  0  0  0  0  0  0
   -0.4159   -0.0744   -0.2805 C   0  0  0  0  0  0  0  0  0  0  0  0
   -0.3068   -1.2784   -0.3779 O   0  0  0  0  0  0  0  0  0  0  0  0
    0.6165    0.7612   -0.2981 O   0  0  0  0  0  0  0  0  0  0  0  0
    1.9398    0.2133   -0.4264 C   0  0  0  0  0  0  0  0  0  0  0  0
    2.4952   -0.2038    0.9268 C   0  0  0  0  0  0  0  0  0  0  0  0
   -3.6486    0.4362    0.7888 H   0  0  0  0  0  0  0  0  0  0  0  0
   -2.7923   -1.0853    0.4967 H   0  0  0  0  0  0  0  0  0  0  0  0
   -2.2880   -0.0294    1.8152 H   0  0  0  0  0  0  0  0  0  0  0  0
   -1.5132    1.6851    0.1752 H   0  0  0  0  0  0  0  0  0  0  0  0
   -2.1639    0.7056   -1.1501 H   0  0  0  0  0  0  0  0  0  0  0  0
    1.8982   -0.6435   -1.1057 H   0  0  0  0  0  0  0  0  0  0  0  0
    2.5279    1.0190   -0.8667 H   0  0  0  0  0  0  0  0  0  0  0  0
    2.4775    0.6377    1.6141 H   0  0  0  0  0  0  0  0  0  0  0  0
    1.8974   -1.0129    1.3407 H   0  0  0  0  0  0  0  0  0  0  0  0
    3.5173   -0.5474    0.8059 H   0  0  0  0  0  0  0  0  0  0  0  0
  1  2  1  0  0  0  0
  2  3  1  0  0  0  0
  3  4  2  0  0  0  0
  3  5  1  0  0  0  0
  5  6  1  0  0  0  0
  6  7  1  0  0  0  0
  1  8  1  0  0  0  0
  1  9  1  0  0  0  0
  1 10  1  0  0  0  0
  2 11  1  0  0  0  0
  2 12  1  0  0  0  0
  6 13  1  0  0  0  0
  6 14  1  0  0  0  0
  7 15  1  0  0  0  0
  7 16  1  0  0  0  0
  7 17  1  0  0  0  0
M  END
