 xtb: 6.7.1 (edcfbbe)
          04112511053D

 19 19  0     0  0            999 V2000
   -3.6706   -0.1169    0.0079 C   0  0  0  0  0  0  0  0  0  0  0  0
   -2.2865    0.5350   -0.0020 C   0  0  0  0  0  0  0  0  0  0  0  0
   -1.3209   -0.5088   -0.0060 O   0  0  0  0  0  0  0  0  0  0  0  0
    0.0045   -0.1903   -0.0035 C   0  0  0  0  0  0  0  0  0  0  0  0
    0.5160    1.1027   -0.0030 C   0  0  0  0  0  0  0  0  0  0  0  0
    1.8881    1.2989    0.0011 C   0  0  0  0  0  0  0  0  0  0  0  0
    2.7581    0.2252    0.0041 C   0  0  0  0  0  0  0  0  0  0  0  0
    2.2483   -1.0646    0.0025 C   0  0  0  0  0  0  0  0  0  0  0  0
    0.8853   -1.2738   -0.0013 C   0  0  0  0  0  0  0  0  0  0  0  0
   -4.2431    0.1658   -0.8693 H   0  0  0  0  0  0  0  0  0  0  0  0
   -3.5421   -1.1960    0.0037 H   0  0  0  0  0  0  0  0  0  0  0  0
   -4.2279    0.1607    0.8963 H   0  0  0  0  0  0  0  0  0  0  0  0
   -2.1388    1.1612    0.8865 H   0  0  0  0  0  0  0  0  0  0  0  0
   -2.1497    1.1579   -0.8946 H   0  0  0  0  0  0  0  0  0  0  0  0
   -0.1388    1.9594   -0.0057 H   0  0  0  0  0  0  0  0  0  0  0  0
    2.2734    2.3075    0.0019 H   0  0  0  0  0  0  0  0  0  0  0  0
    3.8244    0.3887    0.0076 H   0  0  0  0  0  0  0  0  0  0  0  0
    2.9170   -1.9117    0.0043 H   0  0  0  0  0  0  0  0  0  0  0  0
    0.4694   -2.2691   -0.0026 H   0  0  0  0  0  0  0  0  0  0  0  0
  1  2  1  0  0  0  0
  2  3  1  0  0  0  0
  3  4  1  0  0  0  0
  4  5  4  0  0  0  0
  5  6  4  0  0  0  0
  6  7  4  0  0  0  0
  7  8  4  0  0  0  0
  4  9  4  0  0  0  0
  8  9  4  0  0  0  0
  1 10  1  0  0  0  0
  1 11  1  0  0  0  0
  1 12  1  0  0  0  0
  2 13  1  0  0  0  0
  2 14  1  0  0  0  0
  5 15  1  0  0  0  0
  6 16  1  0  0  0  0
  7 17  1  0  0  0  0
  8 18  1  0  0  0  0
  9 19  1  0  0  0  0
M  END
