 xtb: 6.7.1 (edcfbbe)
          04112511193D

 14 13  0     0  0            999 V2000
   -1.0077   -0.5873   -0.1182 C   0  0  0  0  0  0  0  0  0  0  0  0
    0.0418    0.2974    0.5665 C   0  0  0  0  0  0  0  0  0  0  0  0
    1.4081   -0.3954    0.6104 C   0  0  0  0  0  0  0  0  0  0  0  0
    1.7019   -0.9575   -0.6484 O   0  0  0  0  0  0  0  0  0  0  0  0
    0.1690    1.5329   -0.1046 O   0  0  0  0  0  0  0  0  0  0  0  0
   -2.2524    0.0668   -0.2073 O   0  0  0  0  0  0  0  0  0  0  0  0
   -1.0894   -1.5420    0.4114 H   0  0  0  0  0  0  0  0  0  0  0  0
   -0.6875   -0.7795   -1.1441 H   0  0  0  0  0  0  0  0  0  0  0  0
   -0.2668    0.4954    1.6081 H   0  0  0  0  0  0  0  0  0  0  0  0
    1.3805   -1.1776    1.3810 H   0  0  0  0  0  0  0  0  0  0  0  0
    2.1511    0.3610    0.8864 H   0  0  0  0  0  0  0  0  0  0  0  0
    2.6232   -1.2503   -0.6587 H   0  0  0  0  0  0  0  0  0  0  0  0
   -0.6799    1.7302   -0.5307 H   0  0  0  0  0  0  0  0  0  0  0  0
   -2.6456    0.1356    0.6745 H   0  0  0  0  0  0  0  0  0  0  0  0
  1  2  1  0  0  0  0
  2  3  1  0  0  0  0
  3  4  1  0  0  0  0
  2  5  1  0  0  0  0
  1  6  1  0  0  0  0
  1  7  1  0  0  0  0
  1  8  1  0  0  0  0
  2  9  1  0  0  0  0
  3 10  1  0  0  0  0
  3 11  1  0  0  0  0
  4 12  1  0  0  0  0
  5 13  1  0  0  0  0
  6 14  1  0  0  0  0
M  END
