 23

C      1.883000    -1.035000    -0.113000
C      3.069000    -0.991000     0.622000
C      3.027000    -1.013000     2.016000
C      1.800000    -1.079000     2.676000
C      0.615000    -1.123000     1.942000
C      0.656000    -1.101000     0.547000
O      1.759000    -1.098000     4.036000
C      2.646000    -1.933000     4.694000
C      3.352000    -1.466000     5.803000
C      4.245000    -2.307000     6.467000
C      4.433000    -3.616000     6.021000
C      3.727000    -4.083000     4.912000
C      2.834000    -3.242000     4.249000
H      1.917000    -1.019000    -1.198000
H      4.024000    -0.940000     0.107000
H      3.953000    -0.977000     2.583000
H     -0.345000    -1.172000     2.450000
H     -0.267000    -1.135000    -0.024000
H      3.209000    -0.448000     6.155000
H      4.794000    -1.944000     7.330000
H      5.127000    -4.271000     6.539000
H      3.873000    -5.102000     4.566000
H      2.287000    -3.611000     3.386000
