13
 xtb: 6.7.1 (edcfbbe)
C            1.99962609631098       -1.06093045149305       -0.12679588809969
O            0.86850188562048       -0.48425609689483       -0.86819805590941
S           -0.07243230142680        0.58423591724486       -0.10722531679290
O           -0.40744627515771        1.62199109135961       -1.07158130179459
O            0.51231508763328        0.91770464713931        1.19011353058382
O           -1.44688158510629       -0.23331030060010        0.08274367394284
C           -1.39302018305518       -1.40838606031538        0.95954650505093
H            2.41233611683851       -1.79450129138827       -0.81855312544764
H            1.65515951032690       -1.54882859216275        0.78567332195573
H            2.73354800405024       -0.28401414364492        0.09114336746137
H           -1.05117637355219       -1.12181850026589        1.95610597666810
H           -0.75010079002535       -2.17208096393524        0.51608505940220
H           -2.42336692666332       -1.75925784728245        0.99817580109547
