 24

C     -6.110000    -1.695000    -5.217000
C     -5.379000    -2.759000    -4.713000
C     -4.328000    -2.525000    -3.822000
C     -3.971000    -1.219000    -3.403000
C     -4.737000    -0.148000    -3.934000
C     -5.791000    -0.397000    -4.829000
C     -4.444000     1.168000    -3.567000
C     -3.407000     1.448000    -2.682000
C     -2.632000     0.421000    -2.138000
C     -2.898000    -0.929000    -2.487000
C     -2.070000    -1.915000    -1.895000
C     -1.039000    -1.587000    -1.010000
C     -0.800000    -0.260000    -0.687000
C     -1.591000     0.737000    -1.248000
H     -6.928000    -1.871000    -5.910000
H     -5.621000    -3.775000    -5.010000
H     -3.790000    -3.397000    -3.461000
H     -6.377000     0.425000    -5.236000
H     -5.022000     1.999000    -3.966000
H     -3.212000     2.488000    -2.424000
H     -2.211000    -2.971000    -2.111000
H     -0.426000    -2.372000    -0.577000
H      0.000000     0.000000    -0.001000
H     -1.387000     1.773000    -0.981000
