 xtb: 6.7.1 (edcfbbe)
          04112512093D

 26 27  0     0  0            999 V2000
    0.5332    1.6553    0.6150 C   0  0  0  0  0  0  0  0  0  0  0  0
    1.8774    1.9320    0.6793 C   0  0  0  0  0  0  0  0  0  0  0  0
    2.8388    0.9667    0.3604 C   0  0  0  0  0  0  0  0  0  0  0  0
    2.3983   -0.3130   -0.0269 C   0  0  0  0  0  0  0  0  0  0  0  0
    1.0259   -0.5765   -0.0778 C   0  0  0  0  0  0  0  0  0  0  0  0
    0.0835    0.3863    0.2330 C   0  0  0  0  0  0  0  0  0  0  0  0
   -1.3514    0.0676    0.1703 C   0  0  0  0  0  0  0  0  0  0  0  0
   -1.8362   -1.1424    0.6674 C   0  0  0  0  0  0  0  0  0  0  0  0
   -3.1803   -1.4611    0.6203 C   0  0  0  0  0  0  0  0  0  0  0  0
   -4.0567   -0.5517    0.0594 C   0  0  0  0  0  0  0  0  0  0  0  0
   -3.6324    0.6578   -0.4554 C   0  0  0  0  0  0  0  0  0  0  0  0
   -2.2823    0.9419   -0.3860 C   0  0  0  0  0  0  0  0  0  0  0  0
   -1.8683    2.1220   -0.9161 F   0  0  0  0  0  0  0  0  0  0  0  0
   -5.3807   -0.8505    0.0066 F   0  0  0  0  0  0  0  0  0  0  0  0
    3.2871   -1.4255   -0.3952 C   0  0  0  0  0  0  0  0  0  0  0  0
    2.8916   -2.5296   -0.7209 O   0  0  0  0  0  0  0  0  0  0  0  0
    4.5945   -1.1506   -0.3505 O   0  0  0  0  0  0  0  0  0  0  0  0
    4.1197    1.3419    0.4527 O   0  0  0  0  0  0  0  0  0  0  0  0
   -0.1785    2.4226    0.8755 H   0  0  0  0  0  0  0  0  0  0  0  0
    2.2307    2.9055    0.9784 H   0  0  0  0  0  0  0  0  0  0  0  0
    0.7244   -1.5639   -0.3940 H   0  0  0  0  0  0  0  0  0  0  0  0
   -1.1406   -1.8355    1.1115 H   0  0  0  0  0  0  0  0  0  0  0  0
   -3.5505   -2.3943    1.0105 H   0  0  0  0  0  0  0  0  0  0  0  0
   -4.3230    1.3549   -0.8994 H   0  0  0  0  0  0  0  0  0  0  0  0
    5.1373   -1.9220   -0.6042 H   0  0  0  0  0  0  0  0  0  0  0  0
    4.7246    0.6156    0.2123 H   0  0  0  0  0  0  0  0  0  0  0  0
  1  2  4  0  0  0  0
  2  3  4  0  0  0  0
  3  4  4  0  0  0  0
  4  5  4  0  0  0  0
  1  6  4  0  0  0  0
  5  6  4  0  0  0  0
  6  7  1  0  0  0  0
  7  8  4  0  0  0  0
  8  9  4  0  0  0  0
  9 10  4  0  0  0  0
 10 11  4  0  0  0  0
  7 12  4  0  0  0  0
 11 12  4  0  0  0  0
 12 13  1  0  0  0  0
 10 14  1  0  0  0  0
  4 15  1  0  0  0  0
 15 16  2  0  0  0  0
 15 17  1  0  0  0  0
  3 18  1  0  0  0  0
  1 19  1  0  0  0  0
  2 20  1  0  0  0  0
  5 21  1  0  0  0  0
  8 22  1  0  0  0  0
  9 23  1  0  0  0  0
 11 24  1  0  0  0  0
 17 25  1  0  0  0  0
 18 26  1  0  0  0  0
M  END
