20
 xtb: 6.7.1 (edcfbbe)
C            0.08308034231809       -2.54625558676176        0.02797885093845
C           -0.07260540922911       -1.07496316172628       -0.21800868376971
O            0.84677548953429       -0.34187490282034        0.61948384623371
C            1.83784030119949        0.37482933565837        0.01889025277587
O            2.03994180723652        0.36759148992384       -1.17929496460458
C            2.64309393652250        1.11651654818819        1.03185731865282
O           -1.38732420738499       -0.69083382962940        0.20956171591363
C           -1.81131218446898        0.55220619490957       -0.16959892239063
O           -1.13154132587026        1.30048006459161       -0.84304404096063
C           -3.16567690864061        0.84836878831681        0.37495894462062
H           -0.64531904967219       -3.09762294949663       -0.57158026781243
H           -0.06662691609147       -2.77684251214400        1.08607949817548
H            1.08884781114835       -2.85256310476956       -0.27023650310374
H            0.07589275414725       -0.78955824063086       -1.26017546017944
H            3.28798205261994        0.40031534158949        1.55320659634822
H            3.26450956596749        1.86113580286692        0.53558762335909
H            1.99573817106014        1.58426653493039        1.77673220318552
H           -3.06803984648909        1.05850839287610        1.44611102930054
H           -3.58270901755412        1.72148512335837       -0.12546970355161
H           -3.82559090885247       -0.01500218228779        0.26600298674123
