 xtb: 6.7.1 (edcfbbe)
          04112511243D

 18 17  0     0  0            999 V2000
    2.1844   -0.7753    0.5424 C   0  0  0  0  0  0  0  0  0  0  0  0
    1.4214    0.4263   -0.0055 C   0  0  0  0  0  0  0  0  0  0  0  0
    0.3236    0.0472   -1.0084 C   0  0  0  0  0  0  0  0  0  0  0  0
   -1.0875   -0.0166   -0.4083 C   0  0  0  0  0  0  0  0  0  0  0  0
   -1.7789   -0.2882   -1.2258 H   0  0  0  0  0  0  0  0  0  0  0  0
   -1.2304   -1.0478    0.7095 C   0  0  0  0  0  0  0  0  0  0  0  0
   -1.4125    1.2892    0.0461 O   0  0  0  0  0  0  0  0  0  0  0  0
    2.6726   -1.3111   -0.2690 H   0  0  0  0  0  0  0  0  0  0  0  0
    1.5245   -1.4655    1.0590 H   0  0  0  0  0  0  0  0  0  0  0  0
    2.9495   -0.4447    1.2412 H   0  0  0  0  0  0  0  0  0  0  0  0
    0.9715    0.9941    0.8103 H   0  0  0  0  0  0  0  0  0  0  0  0
    2.1356    1.0879   -0.4994 H   0  0  0  0  0  0  0  0  0  0  0  0
    0.2877    0.7987   -1.7993 H   0  0  0  0  0  0  0  0  0  0  0  0
    0.5502   -0.9151   -1.4685 H   0  0  0  0  0  0  0  0  0  0  0  0
   -2.2717   -1.1311    1.0147 H   0  0  0  0  0  0  0  0  0  0  0  0
   -0.8955   -2.0199    0.3603 H   0  0  0  0  0  0  0  0  0  0  0  0
   -0.6401   -0.7509    1.5719 H   0  0  0  0  0  0  0  0  0  0  0  0
   -2.2825    1.2707    0.4662 H   0  0  0  0  0  0  0  0  0  0  0  0
  1  2  1  0  0  0  0
  2  3  1  0  0  0  0
  3  4  1  0  0  0  0
  4  5  1  0  0  0  0
  4  6  1  0  0  0  0
  4  7  1  0  0  0  0
  1  8  1  0  0  0  0
  1  9  1  0  0  0  0
  1 10  1  0  0  0  0
  2 11  1  0  0  0  0
  2 12  1  0  0  0  0
  3 13  1  0  0  0  0
  3 14  1  0  0  0  0
  6 15  1  0  0  0  0
  6 16  1  0  0  0  0
  6 17  1  0  0  0  0
  7 18  1  0  0  0  0
M  END
