17
 xtb: 6.7.1 (edcfbbe)
C           -2.21077650654742        1.03239000424868        0.60209485472756
C           -2.09960097869145       -0.29947456405791       -0.13398542837552
C           -0.82063118550915       -0.39052415802267       -0.97320451772193
C            0.41088900914196       -0.36063998980314       -0.11250427238997
O            0.57273270690721       -1.03718855987604        0.89051704459070
O            1.34248515774456        0.49741373409475       -0.57289876944007
C            2.57524230239160        0.55934995227120        0.19060749045680
H           -3.13134799967019        1.08103302167604        1.19173078759214
H           -1.36831321285139        1.17849691888836        1.28868292164722
H           -2.21637232337094        1.86998711750710       -0.10394168082136
H           -2.95551178845784       -0.43021130757065       -0.80421648329518
H           -2.12219738697171       -1.13026864206931        0.57959433650263
H           -0.77619101372222        0.41554119387094       -1.71002401245831
H           -0.79393916774165       -1.34330575214019       -1.51709747476782
H            3.19466581370561        1.29529202726021       -0.32066871164862
H            3.06678513152701       -0.41649567641259        0.19385995386992
H            2.36894571175803        0.88039077237061        1.21439974830403
