 xtb: 6.7.1 (edcfbbe)
          04112511553D

 24 24  0     0  0            999 V2000
   -2.1669    0.0188   -1.2196 C   0  0  0  0  0  0  0  0  0  0  0  0
   -2.2266    0.2776    0.2808 C   0  0  0  0  0  0  0  0  0  0  0  0
   -1.2202   -0.5114    1.1250 C   0  0  0  0  0  0  0  0  0  0  0  0
    0.2840   -0.3096    0.8743 C   0  0  0  0  0  0  0  0  0  0  0  0
    0.8635   -1.1760   -0.2543 C   0  0  0  0  0  0  0  0  0  0  0  0
    2.1570   -0.4592   -0.6244 C   0  0  0  0  0  0  0  0  0  0  0  0
    1.7463    1.0118   -0.6075 C   0  0  0  0  0  0  0  0  0  0  0  0
    0.7466    1.1285    0.5541 C   0  0  0  0  0  0  0  0  0  0  0  0
   -1.2455    0.4030   -1.6473 H   0  0  0  0  0  0  0  0  0  0  0  0
   -2.2358   -1.0469   -1.4270 H   0  0  0  0  0  0  0  0  0  0  0  0
   -2.9995    0.5160   -1.7137 H   0  0  0  0  0  0  0  0  0  0  0  0
   -2.1099    1.3469    0.4674 H   0  0  0  0  0  0  0  0  0  0  0  0
   -3.2224    0.0032    0.6397 H   0  0  0  0  0  0  0  0  0  0  0  0
   -1.4233   -0.2579    2.1691 H   0  0  0  0  0  0  0  0  0  0  0  0
   -1.4293   -1.5779    1.0070 H   0  0  0  0  0  0  0  0  0  0  0  0
    0.7876   -0.6231    1.7963 H   0  0  0  0  0  0  0  0  0  0  0  0
    1.0311   -2.2020    0.0729 H   0  0  0  0  0  0  0  0  0  0  0  0
    0.1950   -1.1970   -1.1121 H   0  0  0  0  0  0  0  0  0  0  0  0
    2.9165   -0.6449    0.1372 H   0  0  0  0  0  0  0  0  0  0  0  0
    2.5527   -0.7715   -1.5900 H   0  0  0  0  0  0  0  0  0  0  0  0
    2.5985    1.6789   -0.4851 H   0  0  0  0  0  0  0  0  0  0  0  0
    1.2577    1.2624   -1.5506 H   0  0  0  0  0  0  0  0  0  0  0  0
    1.2228    1.5717    1.4289 H   0  0  0  0  0  0  0  0  0  0  0  0
   -0.0851    1.7712    0.2777 H   0  0  0  0  0  0  0  0  0  0  0  0
  1  2  1  0  0  0  0
  2  3  1  0  0  0  0
  3  4  1  0  0  0  0
  4  5  1  0  0  0  0
  5  6  1  0  0  0  0
  6  7  1  0  0  0  0
  4  8  1  0  0  0  0
  7  8  1  0  0  0  0
  1  9  1  0  0  0  0
  1 10  1  0  0  0  0
  1 11  1  0  0  0  0
  2 12  1  0  0  0  0
  2 13  1  0  0  0  0
  3 14  1  0  0  0  0
  3 15  1  0  0  0  0
  4 16  1  0  0  0  0
  5 17  1  0  0  0  0
  5 18  1  0  0  0  0
  6 19  1  0  0  0  0
  6 20  1  0  0  0  0
  7 21  1  0  0  0  0
  7 22  1  0  0  0  0
  8 23  1  0  0  0  0
  8 24  1  0  0  0  0
M  END
