 xtb: 6.7.1 (edcfbbe)
          04112511043D

 22 22  0     0  0            999 V2000
   -2.6583   -0.4832    1.4623 C   0  0  0  0  0  0  0  0  0  0  0  0
   -2.0837   -0.3054    0.0581 C   0  0  0  0  0  0  0  0  0  0  0  0
   -3.2167   -0.0632   -0.9376 C   0  0  0  0  0  0  0  0  0  0  0  0
   -1.0710    0.8612    0.0075 C   0  0  0  0  0  0  0  0  0  0  0  0
    0.3536    0.4082   -0.0451 C   0  0  0  0  0  0  0  0  0  0  0  0
    0.9137   -0.4614    0.8949 C   0  0  0  0  0  0  0  0  0  0  0  0
    2.1734   -0.8582    0.8307 N   0  0  0  0  0  0  0  0  0  0  0  0
    2.9041   -0.3917   -0.1752 C   0  0  0  0  0  0  0  0  0  0  0  0
    2.3623    0.4729   -1.1138 C   0  0  0  0  0  0  0  0  0  0  0  0
    1.0986    0.8667   -1.0491 N   0  0  0  0  0  0  0  0  0  0  0  0
   -3.3284   -1.3392    1.4900 H   0  0  0  0  0  0  0  0  0  0  0  0
   -3.2213    0.4015    1.7517 H   0  0  0  0  0  0  0  0  0  0  0  0
   -1.8716   -0.6447    2.1948 H   0  0  0  0  0  0  0  0  0  0  0  0
   -1.5684   -1.2296   -0.2281 H   0  0  0  0  0  0  0  0  0  0  0  0
   -2.8285    0.0126   -1.9502 H   0  0  0  0  0  0  0  0  0  0  0  0
   -3.9300   -0.8833   -0.9048 H   0  0  0  0  0  0  0  0  0  0  0  0
   -3.7410    0.8583   -0.6957 H   0  0  0  0  0  0  0  0  0  0  0  0
   -1.2048    1.4955    0.8861 H   0  0  0  0  0  0  0  0  0  0  0  0
   -1.2443    1.4740   -0.8771 H   0  0  0  0  0  0  0  0  0  0  0  0
    0.3398   -0.8514    1.7228 H   0  0  0  0  0  0  0  0  0  0  0  0
    3.9315   -0.7217   -0.2169 H   0  0  0  0  0  0  0  0  0  0  0  0
    2.9422    0.8628   -1.9382 H   0  0  0  0  0  0  0  0  0  0  0  0
  1  2  1  0  0  0  0
  2  3  1  0  0  0  0
  2  4  1  0  0  0  0
  4  5  1  0  0  0  0
  5  6  4  0  0  0  0
  6  7  4  0  0  0  0
  7  8  4  0  0  0  0
  8  9  4  0  0  0  0
  5 10  4  0  0  0  0
  9 10  4  0  0  0  0
  1 11  1  0  0  0  0
  1 12  1  0  0  0  0
  1 13  1  0  0  0  0
  2 14  1  0  0  0  0
  3 15  1  0  0  0  0
  3 16  1  0  0  0  0
  3 17  1  0  0  0  0
  4 18  1  0  0  0  0
  4 19  1  0  0  0  0
  6 20  1  0  0  0  0
  8 21  1  0  0  0  0
  9 22  1  0  0  0  0
M  END
