 xtb: 6.7.1 (edcfbbe)
          04112511343D

 15 14  0     0  0            999 V2000
    1.6106   -0.9521   -0.2564 C   0  0  0  0  0  0  0  0  0  0  0  0
    1.1404    0.2957    0.4829 C   0  0  0  0  0  0  0  0  0  0  0  0
    0.0428    1.0382   -0.2778 C   0  0  0  0  0  0  0  0  0  0  0  0
   -1.2922    0.3582   -0.3390 C   0  0  0  0  0  0  0  0  0  0  0  0
   -1.7087   -0.6602    0.3905 C   0  0  0  0  0  0  0  0  0  0  0  0
    2.3717   -1.4730    0.3198 H   0  0  0  0  0  0  0  0  0  0  0  0
    2.0357   -0.6820   -1.2207 H   0  0  0  0  0  0  0  0  0  0  0  0
    0.7807   -1.6322   -0.4296 H   0  0  0  0  0  0  0  0  0  0  0  0
    0.7821    0.0279    1.4778 H   0  0  0  0  0  0  0  0  0  0  0  0
    1.9891    0.9711    0.6130 H   0  0  0  0  0  0  0  0  0  0  0  0
    0.3812    1.2207   -1.3019 H   0  0  0  0  0  0  0  0  0  0  0  0
   -0.1117    2.0201    0.1823 H   0  0  0  0  0  0  0  0  0  0  0  0
   -1.9703    0.7991   -1.0605 H   0  0  0  0  0  0  0  0  0  0  0  0
   -2.7013   -1.0622    0.2759 H   0  0  0  0  0  0  0  0  0  0  0  0
   -1.0922   -1.1406    1.1303 H   0  0  0  0  0  0  0  0  0  0  0  0
  1  2  1  0  0  0  0
  2  3  1  0  0  0  0
  3  4  1  0  0  0  0
  4  5  2  0  0  0  0
  1  6  1  0  0  0  0
  1  7  1  0  0  0  0
  1  8  1  0  0  0  0
  2  9  1  0  0  0  0
  2 10  1  0  0  0  0
  3 11  1  0  0  0  0
  3 12  1  0  0  0  0
  4 13  1  0  0  0  0
  5 14  1  0  0  0  0
  5 15  1  0  0  0  0
M  END
