  5
 
 C          1.6204057245       -0.0002867150       -0.0001017087
 Br        -0.3159010846        0.0001392010        0.0001057759
 H          1.9562516006       -0.6054450189       -0.8350089554
 H          1.9547917845        1.0257483223       -0.1068547506
 H          1.9555377807       -0.4202950441        0.9419110288
           5
         -7.74550908
 C          1.6197972719        0.0000024970       -0.0000049309
 Br        -0.3175194243        0.0000009091       -0.0000006183
 H          1.9563657200        0.0951376611        1.0271934642
 H          1.9563731653       -0.9372448460       -0.4311292846
 H          1.9565805372        0.8420053561       -0.5959564035
