  5
 
 C          0.1360000000       -0.1000000000       -0.0730000000
 Br        -1.2950000000        0.9520000000        0.6960000000
 H          0.8160000000        0.5790000000       -0.5900000000
 H          0.6480000000       -0.6190000000        0.7390000000
 H         -0.3050000000       -0.8120000000       -0.7720000000
