 xtb: 6.7.1 (edcfbbe)
          04112511553D

 24 24  0     0  0            999 V2000
   -2.2154    0.6041   -1.0115 C   0  0  0  0  0  0  0  0  0  0  0  0
   -1.9191   -0.6561   -0.2041 C   0  0  0  0  0  0  0  0  0  0  0  0
   -1.1709   -0.4374    1.1167 C   0  0  0  0  0  0  0  0  0  0  0  0
    0.3459   -0.1860    1.0729 C   0  0  0  0  0  0  0  0  0  0  0  0
    1.1205   -1.1810    0.1884 C   0  0  0  0  0  0  0  0  0  0  0  0
    1.4868   -0.3994   -1.0704 C   0  0  0  0  0  0  0  0  0  0  0  0
    1.8000    0.9915   -0.5271 C   0  0  0  0  0  0  0  0  0  0  0  0
    0.7446    1.2154    0.5609 C   0  0  0  0  0  0  0  0  0  0  0  0
   -2.9136    0.3703   -1.8131 H   0  0  0  0  0  0  0  0  0  0  0  0
   -2.6678    1.3661   -0.3798 H   0  0  0  0  0  0  0  0  0  0  0  0
   -1.3170    1.0131   -1.4638 H   0  0  0  0  0  0  0  0  0  0  0  0
   -2.8758   -1.1224    0.0475 H   0  0  0  0  0  0  0  0  0  0  0  0
   -1.3748   -1.3643   -0.8293 H   0  0  0  0  0  0  0  0  0  0  0  0
   -1.6385    0.3930    1.6521 H   0  0  0  0  0  0  0  0  0  0  0  0
   -1.3239   -1.3356    1.7221 H   0  0  0  0  0  0  0  0  0  0  0  0
    0.6886   -0.2936    2.1073 H   0  0  0  0  0  0  0  0  0  0  0  0
    2.0359   -1.4862    0.6984 H   0  0  0  0  0  0  0  0  0  0  0  0
    0.5444   -2.0798   -0.0242 H   0  0  0  0  0  0  0  0  0  0  0  0
    2.3296   -0.8394   -1.6025 H   0  0  0  0  0  0  0  0  0  0  0  0
    0.6373   -0.3539   -1.7519 H   0  0  0  0  0  0  0  0  0  0  0  0
    2.7982    0.9924   -0.0858 H   0  0  0  0  0  0  0  0  0  0  0  0
    1.7690    1.7607   -1.2979 H   0  0  0  0  0  0  0  0  0  0  0  0
    1.1370    1.8328    1.3689 H   0  0  0  0  0  0  0  0  0  0  0  0
   -0.1210    1.7299    0.1518 H   0  0  0  0  0  0  0  0  0  0  0  0
  1  2  1  0  0  0  0
  2  3  1  0  0  0  0
  3  4  1  0  0  0  0
  4  5  1  0  0  0  0
  5  6  1  0  0  0  0
  6  7  1  0  0  0  0
  4  8  1  0  0  0  0
  7  8  1  0  0  0  0
  1  9  1  0  0  0  0
  1 10  1  0  0  0  0
  1 11  1  0  0  0  0
  2 12  1  0  0  0  0
  2 13  1  0  0  0  0
  3 14  1  0  0  0  0
  3 15  1  0  0  0  0
  4 16  1  0  0  0  0
  5 17  1  0  0  0  0
  5 18  1  0  0  0  0
  6 19  1  0  0  0  0
  6 20  1  0  0  0  0
  7 21  1  0  0  0  0
  7 22  1  0  0  0  0
  8 23  1  0  0  0  0
  8 24  1  0  0  0  0
M  END
