 xtb: 6.7.1 (edcfbbe)
          04112512273D

 19 18  0     0  0            999 V2000
    1.6000    0.7488   -0.9761 C   0  0  0  0  0  0  0  0  0  0  0  0
    1.3940    0.1290    0.4047 C   0  0  0  0  0  0  0  0  0  0  0  0
    1.6713   -1.3716    0.3742 C   0  0  0  0  0  0  0  0  0  0  0  0
   -0.0177    0.4436    0.9313 C   0  0  0  0  0  0  0  0  0  0  0  0
   -1.1530    0.0515    0.0139 C   0  0  0  0  0  0  0  0  0  0  0  0
   -1.1801   -0.9803   -0.6277 O   0  0  0  0  0  0  0  0  0  0  0  0
   -2.2798    1.0435   -0.0335 C   0  0  0  0  0  0  0  0  0  0  0  0
    2.6219    0.5920   -1.3122 H   0  0  0  0  0  0  0  0  0  0  0  0
    0.9293    0.2897   -1.6998 H   0  0  0  0  0  0  0  0  0  0  0  0
    1.4065    1.8189   -0.9512 H   0  0  0  0  0  0  0  0  0  0  0  0
    2.1037    0.5938    1.0992 H   0  0  0  0  0  0  0  0  0  0  0  0
    2.6778   -1.5609    0.0088 H   0  0  0  0  0  0  0  0  0  0  0  0
    0.9649   -1.8730   -0.2822 H   0  0  0  0  0  0  0  0  0  0  0  0
    1.5806   -1.7992    1.3703 H   0  0  0  0  0  0  0  0  0  0  0  0
   -0.0932    1.5081    1.1522 H   0  0  0  0  0  0  0  0  0  0  0  0
   -0.1729   -0.1056    1.8642 H   0  0  0  0  0  0  0  0  0  0  0  0
   -3.1227    0.6348   -0.5842 H   0  0  0  0  0  0  0  0  0  0  0  0
   -2.5830    1.3113    0.9749 H   0  0  0  0  0  0  0  0  0  0  0  0
   -1.9287    1.9452   -0.5310 H   0  0  0  0  0  0  0  0  0  0  0  0
  1  2  1  0  0  0  0
  2  3  1  0  0  0  0
  2  4  1  0  0  0  0
  4  5  1  0  0  0  0
  5  6  2  0  0  0  0
  5  7  1  0  0  0  0
  1  8  1  0  0  0  0
  1  9  1  0  0  0  0
  1 10  1  0  0  0  0
  2 11  1  0  0  0  0
  3 12  1  0  0  0  0
  3 13  1  0  0  0  0
  3 14  1  0  0  0  0
  4 15  1  0  0  0  0
  4 16  1  0  0  0  0
  7 17  1  0  0  0  0
  7 18  1  0  0  0  0
  7 19  1  0  0  0  0
M  END
