22
 xtb: 6.7.1 (edcfbbe)
C           -2.00030276647113        0.31230027466640        1.48888114166319
C           -2.15502903236937       -0.34169355221740        0.11748734545595
C           -3.58077095725317       -0.18267622039257       -0.40643933345150
C           -1.15962899458116        0.24944514544659       -0.90434663944427
C            0.27144379430538        0.09783865097597       -0.48904190793292
C            0.86602672884785       -1.16960134269486       -0.44411946440946
N            2.12600460201141       -1.36801831694214       -0.05393957814801
C            2.81106275434310       -0.26961039005383        0.29622484249918
C            2.23982545588876        0.99136870720537        0.24306322528590
N            0.97266333212301        1.18893269697676       -0.14653464438068
H           -1.00315629261834        0.14233283363250        1.90879157080899
H           -2.73308328115466       -0.09255085168988        2.19463324473743
H           -2.15920681994566        1.39533446119028        1.41973221508676
H           -1.93710340235193       -1.41398525100122        0.21679083905341
H           -4.30232336573111       -0.63091900914825        0.28453609296703
H           -3.83317087384717        0.87906197614909       -0.51472404689244
H           -3.70260725858249       -0.66117291429837       -1.38405713185159
H           -1.37877848667953        1.31310333192811       -1.04704368677621
H           -1.30760724686262       -0.25591833750681       -1.86666427005618
H            0.29613829019375       -2.04749838857935       -0.74154087212619
H            3.83969525449840       -0.40025199565153        0.62137849524513
H            2.81658523850642        1.87017275042907        0.52133321504882
