 xtb: 6.7.1 (edcfbbe)
          04112512193D

 17 16  0     0  0            999 V2000
   -2.1466   -0.5056    0.9360 C   0  0  0  0  0  0  0  0  0  0  0  0
   -2.0881    0.5808   -0.1315 C   0  0  0  0  0  0  0  0  0  0  0  0
   -0.8417    0.4633   -1.0044 C   0  0  0  0  0  0  0  0  0  0  0  0
    0.3349    0.7589   -0.2379 O   0  0  0  0  0  0  0  0  0  0  0  0
    1.2208   -0.2006   -0.0031 C   0  0  0  0  0  0  0  0  0  0  0  0
    1.1182   -1.3354   -0.4236 O   0  0  0  0  0  0  0  0  0  0  0  0
    2.3607    0.2997    0.8337 C   0  0  0  0  0  0  0  0  0  0  0  0
   -1.2940   -0.4290    1.6079 H   0  0  0  0  0  0  0  0  0  0  0  0
   -3.0554   -0.4098    1.5234 H   0  0  0  0  0  0  0  0  0  0  0  0
   -2.1293   -1.4924    0.4779 H   0  0  0  0  0  0  0  0  0  0  0  0
   -2.0910    1.5638    0.3411 H   0  0  0  0  0  0  0  0  0  0  0  0
   -2.9582    0.5066   -0.7836 H   0  0  0  0  0  0  0  0  0  0  0  0
   -0.7446   -0.5453   -1.4180 H   0  0  0  0  0  0  0  0  0  0  0  0
   -0.8647    1.1972   -1.8131 H   0  0  0  0  0  0  0  0  0  0  0  0
    2.2013    1.3405    1.0931 H   0  0  0  0  0  0  0  0  0  0  0  0
    3.2853    0.1851    0.2737 H   0  0  0  0  0  0  0  0  0  0  0  0
    2.4372   -0.3110    1.7296 H   0  0  0  0  0  0  0  0  0  0  0  0
  1  2  1  0  0  0  0
  2  3  1  0  0  0  0
  3  4  1  0  0  0  0
  4  5  1  0  0  0  0
  5  6  2  0  0  0  0
  5  7  1  0  0  0  0
  1  8  1  0  0  0  0
  1  9  1  0  0  0  0
  1 10  1  0  0  0  0
  2 11  1  0  0  0  0
  2 12  1  0  0  0  0
  3 13  1  0  0  0  0
  3 14  1  0  0  0  0
  7 15  1  0  0  0  0
  7 16  1  0  0  0  0
  7 17  1  0  0  0  0
M  END
