  19
 
 C         -2.5695234139        1.4435353517        0.0074774498
 C         -1.6025306595        0.3096646286        0.0185963500
 C         -1.8860008064       -1.0224551969        0.0520944423
 N         -0.7274124862       -1.7566387248        0.0513971858
 C          0.3354962370       -0.9028267966        0.0170684166
 C         -0.1766661566        0.4175364007       -0.0046691073
 C          0.7092810273        1.4940074615       -0.0417705340
 C          2.0612551759        1.2354995657       -0.0558734445
 C          2.5521488632       -0.0733100299       -0.0338702946
 C          1.7012880488       -1.1567867800        0.0027792669
 H         -2.4533332929        2.0347222264       -0.9010827743
 H         -3.5904703544        1.0721489284        0.0546213730
 H         -2.3955542142        2.1006136600        0.8592899581
 H         -2.8422711040       -1.5105622662        0.0775031427
 H         -0.6729117797       -2.7601288437        0.0723113066
 H          0.3369154525        2.5076845998       -0.0588380986
 H          2.7646593416        2.0551992077       -0.0846243602
 H          3.6202449448       -0.2340932686       -0.0458185973
 H          2.0799782210       -2.1688362722        0.0199950769
          19
        -26.78715727
 C         -2.5923414721        1.4076687442       -0.0008674120
 C         -1.6082094274        0.2888588774        0.0001817433
 C         -1.8715645253       -1.0478941484        0.0004668693
 N         -0.7014418953       -1.7640565647        0.0004933207
 C          0.3483897749       -0.8934697307       -0.0001062281
 C         -0.1842189783        0.4187300640        0.0000159131
 C          0.6850445897        1.5092115209        0.0006816828
 C          2.0408714170        1.2715317653        0.0005290422
 C          2.5516410671       -0.0295456895       -0.0005151624
 C          1.7177269637       -1.1267386972       -0.0006574453
 H         -2.4559141086        2.0366867627        0.8785701462
 H         -2.4577013305        2.0330600275       -0.8832128453
 H         -3.6081402726        1.0199864573        0.0009169060
 H         -2.8194908111       -1.5521510440        0.0008852517
 H         -0.6316622131       -2.7668335479       -0.0002795060
 H          0.2976699496        2.5172954560        0.0010495138
 H          2.7308313660        2.1029523909        0.0008746872
 H          3.6221534068       -0.1741737350       -0.0012220390
 H          2.1124639073       -2.1325914616       -0.0012083161
