 19

C     -4.234000     1.708000     4.538000
C     -3.859000     0.690000     3.536000
C     -4.547000    -0.472000     3.274000
N     -3.882000    -1.142000     2.282000
C     -2.768000    -0.431000     1.894000
C     -2.730000     0.729000     2.669000
C     -1.677000     1.644000     2.470000
C     -0.704000     1.364000     1.504000
C     -0.767000     0.198000     0.745000
C     -1.802000    -0.725000     0.925000
H     -4.890000     2.456000     4.084000
H     -4.754000     1.249000     5.385000
H     -3.346000     2.210000     4.936000
H     -5.449000    -0.884000     3.704000
H     -4.166000    -2.030000     1.891000
H     -1.613000     2.557000     3.054000
H      0.111000     2.065000     1.346000
H     -0.000000     0.000000    -0.000000
H     -1.851000    -1.632000     0.332000
