 xtb: 6.7.1 (edcfbbe)
          04112511223D

 22 21  0     0  0            999 V2000
    2.0486   -1.1399   -0.0354 C   0  0  0  0  0  0  0  0  0  0  0  0
    1.4545    0.2761   -0.0737 C   0  0  0  0  0  0  0  0  0  0  0  0
    1.6702    0.9874    1.2573 C   0  0  0  0  0  0  0  0  0  0  0  0
    0.0132    0.1634   -0.5428 C   0  0  0  0  0  0  0  0  0  0  0  0
   -0.2165    0.0343   -1.7311 O   0  0  0  0  0  0  0  0  0  0  0  0
   -1.1156    0.1519    0.4708 C   0  0  0  0  0  0  0  0  0  0  0  0
   -1.4999   -1.3115    0.7263 C   0  0  0  0  0  0  0  0  0  0  0  0
   -2.3140    0.9263   -0.0786 C   0  0  0  0  0  0  0  0  0  0  0  0
    1.6074   -1.7186    0.7718 H   0  0  0  0  0  0  0  0  0  0  0  0
    3.1214   -1.0816    0.1270 H   0  0  0  0  0  0  0  0  0  0  0  0
    1.8644   -1.6528   -0.9766 H   0  0  0  0  0  0  0  0  0  0  0  0
    1.9746    0.8282   -0.8654 H   0  0  0  0  0  0  0  0  0  0  0  0
    2.7363    1.1374    1.4100 H   0  0  0  0  0  0  0  0  0  0  0  0
    1.1866    1.9611    1.2623 H   0  0  0  0  0  0  0  0  0  0  0  0
    1.2939    0.3948    2.0869 H   0  0  0  0  0  0  0  0  0  0  0  0
   -0.7920    0.6042    1.4075 H   0  0  0  0  0  0  0  0  0  0  0  0
   -1.7574   -1.7975   -0.2123 H   0  0  0  0  0  0  0  0  0  0  0  0
   -0.6810   -1.8567    1.1870 H   0  0  0  0  0  0  0  0  0  0  0  0
   -2.3605   -1.3518    1.3885 H   0  0  0  0  0  0  0  0  0  0  0  0
   -2.0580    1.9742   -0.2184 H   0  0  0  0  0  0  0  0  0  0  0  0
   -2.6105    0.5167   -1.0416 H   0  0  0  0  0  0  0  0  0  0  0  0
   -3.1526    0.8584    0.6086 H   0  0  0  0  0  0  0  0  0  0  0  0
  1  2  1  0  0  0  0
  2  3  1  0  0  0  0
  2  4  1  0  0  0  0
  4  5  2  0  0  0  0
  4  6  1  0  0  0  0
  6  7  1  0  0  0  0
  6  8  1  0  0  0  0
  1  9  1  0  0  0  0
  1 10  1  0  0  0  0
  1 11  1  0  0  0  0
  2 12  1  0  0  0  0
  3 13  1  0  0  0  0
  3 14  1  0  0  0  0
  3 15  1  0  0  0  0
  6 16  1  0  0  0  0
  7 17  1  0  0  0  0
  7 18  1  0  0  0  0
  7 19  1  0  0  0  0
  8 20  1  0  0  0  0
  8 21  1  0  0  0  0
  8 22  1  0  0  0  0
M  END
