 xtb: 6.7.1 (edcfbbe)
          04112511493D

 21 20  0     0  0            999 V2000
    2.0244    0.5590   -1.0206 C   0  0  0  0  0  0  0  0  0  0  0  0
    1.0577   -0.1571   -0.0821 C   0  0  0  0  0  0  0  0  0  0  0  0
    0.6101   -1.0004   -0.6272 H   0  0  0  0  0  0  0  0  0  0  0  0
   -0.0470    0.7907    0.4301 C   0  0  0  0  0  0  0  0  0  0  0  0
   -1.4900    0.3475    0.1460 C   0  0  0  0  0  0  0  0  0  0  0  0
   -1.7786    0.2958   -1.3533 C   0  0  0  0  0  0  0  0  0  0  0  0
   -1.8261   -0.9859    0.8121 C   0  0  0  0  0  0  0  0  0  0  0  0
    1.8363   -0.6805    0.9881 O   0  0  0  0  0  0  0  0  0  0  0  0
    2.4961    1.3868   -0.4974 H   0  0  0  0  0  0  0  0  0  0  0  0
    2.8009   -0.1301   -1.3430 H   0  0  0  0  0  0  0  0  0  0  0  0
    1.4922    0.9327   -1.8897 H   0  0  0  0  0  0  0  0  0  0  0  0
    0.0820    0.9034    1.5093 H   0  0  0  0  0  0  0  0  0  0  0  0
    0.1002    1.7774   -0.0116 H   0  0  0  0  0  0  0  0  0  0  0  0
   -2.1419    1.1124    0.5846 H   0  0  0  0  0  0  0  0  0  0  0  0
   -2.8260    0.0603   -1.5260 H   0  0  0  0  0  0  0  0  0  0  0  0
   -1.1748   -0.4639   -1.8431 H   0  0  0  0  0  0  0  0  0  0  0  0
   -1.5621    1.2561   -1.8151 H   0  0  0  0  0  0  0  0  0  0  0  0
   -1.6448   -0.9339    1.8832 H   0  0  0  0  0  0  0  0  0  0  0  0
   -2.8748   -1.2277    0.6562 H   0  0  0  0  0  0  0  0  0  0  0  0
   -1.2309   -1.7943    0.3945 H   0  0  0  0  0  0  0  0  0  0  0  0
    1.2677   -1.2059    1.5656 H   0  0  0  0  0  0  0  0  0  0  0  0
  1  2  1  0  0  0  0
  2  3  1  0  0  0  0
  2  4  1  0  0  0  0
  4  5  1  0  0  0  0
  5  6  1  0  0  0  0
  5  7  1  0  0  0  0
  2  8  1  0  0  0  0
  1  9  1  0  0  0  0
  1 10  1  0  0  0  0
  1 11  1  0  0  0  0
  4 12  1  0  0  0  0
  4 13  1  0  0  0  0
  5 14  1  0  0  0  0
  6 15  1  0  0  0  0
  6 16  1  0  0  0  0
  6 17  1  0  0  0  0
  7 18  1  0  0  0  0
  7 19  1  0  0  0  0
  7 20  1  0  0  0  0
  8 21  1  0  0  0  0
M  END
