  16
 
 C          3.3338287162        0.0058089751       -0.5071720025
 C          2.1861283816       -0.0107296059        0.4945697476
 C          0.8339813710       -0.0004271802       -0.2147627764
 C         -0.3212277267       -0.0195981376        0.7902327999
 N         -1.5863264941       -0.0009591447        0.0390992688
 O         -2.0619500935       -1.0664732040       -0.2686695056
 O         -2.0410340139        1.0790899034       -0.2491195313
 H          4.2891066341       -0.0000020863        0.0110676164
 H          3.2888073752       -0.8668299946       -1.1543689242
 H          3.2856151317        0.8967095018       -1.1287732952
 H          2.2610755912       -0.9029217807        1.1194621683
 H          2.2598143350        0.8616484252        1.1469700311
 H          0.7537078600        0.8957285770       -0.8341231607
 H          0.7566949971       -0.8741860685       -0.8656858207
 H         -0.2862012119        0.8671611175        1.4250816745
 H         -0.2905327418       -0.9317465851        1.3881599028
          16
        -24.11924791
 C          3.0122408160       -0.2847945414        0.4436610646
 C          1.6141427796       -0.5227797523       -0.1121334612
 C          0.8961440558        0.7974397180       -0.3879438495
 C         -0.5003173707        0.5816074599       -0.9675466424
 N         -1.3803008275       -0.0221606100        0.0521685553
 O         -1.5143809878        0.5795419253        1.0892976825
 O         -1.9083794685       -1.0724737214       -0.2205031742
 H          3.6132579354        0.2837092399       -0.2626877850
 H          2.9611005991        0.2712423964        1.3767905693
 H          3.5109148624       -1.2311645189        0.6353146634
 H          1.6832231838       -1.0996167515       -1.0372509749
 H          1.0386512746       -1.1120759592        0.6050438624
 H          0.8046403867        1.3681006993        0.5386898455
 H          1.4788411579        1.3903235562       -1.0949047712
 H         -0.4830473792       -0.0893202472       -1.8280609774
 H         -0.9417366352        1.5414022231       -1.2467372945
