18
 xtb: 6.7.1 (edcfbbe)
C            1.91779974566814       -0.46761660830075        0.87542085640419
C            1.51173981840103        0.25390067676710       -0.40949718660831
C            0.24157378517237       -0.25355739915458       -1.10203180862282
C           -1.10590420367711       -0.02777406311517       -0.40461153690022
H           -1.88640322470970       -0.22026026569539       -1.15709461040729
C           -1.39466595580594       -0.91795224217208        0.79075382971982
O           -1.24259817443523        1.34053669634648        0.05192260258010
H            1.86898943067742       -1.55545279253353        0.75121732154186
H            1.28091254265256       -0.19732418209888        1.72115234988670
H            2.94623051092169       -0.20974951796781        1.15005044537921
H            1.41693985244441        1.32882608807502       -0.21351347448314
H            2.32721719223293        0.15322290550425       -1.13613375227551
H            0.18112098491350        0.23844679193055       -2.08221146397212
H            0.33539054909660       -1.32873208596856       -1.30483748638764
H           -2.42678038529650       -0.77312576600949        1.12540470324144
H           -1.27190692642717       -1.96848974834764        0.51328906709386
H           -0.73154721273159       -0.70225514314655        1.63067591860226
H           -1.03785274717374        1.91479721247626       -0.69791702535448
