  14
 
 C         -1.8505965957       -0.0001892151       -0.0148916083
 C         -1.1518157727       -1.1959415123       -0.0015277364
 C          0.2287572290       -1.2004997399        0.0237146026
 C          0.9390750994        0.0000028661        0.0385634816
 C          0.2285844818        1.2004116034        0.0239515842
 C         -1.1519850456        1.1956594045       -0.0012654727
 N          2.3172039121        0.0000909711        0.1380791909
 H         -2.9298309483       -0.0002651792       -0.0375012230
 H         -1.6869816865       -2.1345454224       -0.0143679881
 H          0.7711878532       -2.1356950022        0.0336084548
 H          0.7708913083        2.1356753532        0.0340781352
 H         -1.6872860228        2.1341903472       -0.0138783332
 H          2.7838135467        0.8469395154       -0.1437154361
 H          2.7839197338       -0.8466323894       -0.1437353544
          14
        -19.31669183
 C         -1.8526298103       -0.0000073998        0.0053234619
 C         -1.1537724477       -1.1957861189        0.0012067976
 C          0.2269693631       -1.2004136022       -0.0084387545
 C          0.9376611783        0.0000339223       -0.0114966312
 C          0.2269793227        1.2004533221       -0.0084240352
 C         -1.1537594804        1.1957692944        0.0010414531
 N          2.3177362440       -0.0000477440        0.0532046826
 H         -2.9320676378        0.0000529572        0.0101550265
 H         -1.6890579037       -2.1344161010        0.0018561398
 H          0.7695362806       -2.1355961252       -0.0125529076
 H          0.7695686898        2.1356150553       -0.0121960601
 H         -1.6891266344        2.1343717976        0.0020629171
 H          2.7773027375        0.8468613502       -0.2399017706
 H          2.7768986535       -0.8468143457       -0.2410801193
