  22
 
 C          3.5168134721       -1.1169642549        0.3879025229
 C          2.7390150002       -0.0423485002       -0.3543280648
 O          1.4911212930        0.1283638778        0.2780501769
 C          0.6854958890        1.1020830920       -0.3338801156
 C         -0.6852094400        1.1021724158        0.3334551125
 O         -1.4908636554        0.1284367979       -0.2784132926
 C         -2.7383620523       -0.0429958466        0.3544993844
 C         -3.5163546441       -1.1171821971       -0.3881701263
 H          4.4826293917       -1.2713301901       -0.0851824789
 H          3.6663737395       -0.8174150569        1.4211414182
 H          2.9574409649       -2.0477611752        0.3757440370
 H          2.5894459155       -0.3358012424       -1.4059698758
 H          3.2961209562        0.9096166091       -0.3465073014
 H          1.1524807740        2.0960526329       -0.2345484049
 H          0.5562408256        0.8813653396       -1.4035635767
 H         -1.1521007890        2.0961908255        0.2339990989
 H         -0.5559973687        0.8815909862        1.4031958422
 H         -2.5881341978       -0.3372552953        1.4058051231
 H         -3.2956478822        0.9088275244        0.3477327226
 H         -4.4819155864       -1.2720664322        0.0852457967
 H         -3.6664377462       -0.8168940039       -1.4210565919
 H         -2.9568234388       -2.0478389112       -0.3769455575
          22
        -28.10512996
 C          3.0200763253        0.6148331314        0.8021138028
 C          2.4249220743        0.3582080257       -0.5811728748
 O          1.0304886685        0.1545659789       -0.5795554211
 C          0.6115050981       -1.0779029874       -0.0325814650
 C         -0.8775769373       -1.2910793847       -0.3377084675
 O         -1.7366255642       -0.7279026570        0.6205650716
 C         -1.8124656685        0.6879225432        0.6167557661
 C         -2.6803788815        1.2430245610       -0.5105584457
 H          4.0655484482        0.8926719376        0.7001217741
 H          2.4855357415        1.4254480458        1.2917170067
 H          2.9581252642       -0.2733797017        1.4265304029
 H          2.9264588020       -0.5045380876       -1.0472172220
 H          2.5743558009        1.2355483394       -1.2163428797
 H          1.1954897527       -1.8962796248       -0.4810973771
 H          0.7559106350       -1.1001496616        1.0561511321
 H         -1.0962602220       -2.3614523653       -0.3142715740
 H         -1.0845894206       -0.9041253055       -1.3427325650
 H         -2.2578844528        0.9394096381        1.5834064901
 H         -0.8085859636        1.1222055763        0.5601630279
 H         -2.8121215406        2.3128430069       -0.3729486306
 H         -2.2135498536        1.0763429838       -1.4780795850
 H         -3.6551602235        0.7610104420       -0.5021545628
