 22

C      0.290000     0.559000     3.922000
C      0.304000     0.820000     2.430000
O     -0.853000     0.236000     1.847000
C     -0.894000     0.451000     0.442000
C     -2.146000    -0.194000    -0.121000
O     -2.115000    -1.589000     0.155000
C     -3.268000    -2.246000    -0.351000
C     -3.176000    -3.721000    -0.027000
H      1.169000     0.996000     4.403000
H     -0.610000     0.981000     4.379000
H      0.275000    -0.517000     4.124000
H      1.193000     0.377000     1.972000
H      0.296000     1.896000     2.229000
H     -0.890000     1.530000     0.261000
H      0.000000     0.000000     0.000000
H     -2.204000    -0.062000    -1.206000
H     -3.038000     0.229000     0.350000
H     -4.155000    -1.805000     0.113000
H     -3.314000    -2.092000    -1.433000
H     -4.051000    -4.258000    -0.404000
H     -2.275000    -4.159000    -0.470000
H     -3.106000    -3.875000     1.055000
