 xtb: 6.7.1 (edcfbbe)
          04112512423D

 17 16  0     0  0            999 V2000
   -2.6063    0.4979    0.6239 C   0  0  0  0  0  0  0  0  0  0  0  0
   -1.7204    0.4231   -0.6231 C   0  0  0  0  0  0  0  0  0  0  0  0
   -0.4230   -0.2585   -0.2726 C   0  0  0  0  0  0  0  0  0  0  0  0
   -0.1817   -1.4317   -0.4691 O   0  0  0  0  0  0  0  0  0  0  0  0
    0.4179    0.5774    0.3216 O   0  0  0  0  0  0  0  0  0  0  0  0
    1.6941    0.0779    0.7540 C   0  0  0  0  0  0  0  0  0  0  0  0
    2.7234    0.1689   -0.3621 C   0  0  0  0  0  0  0  0  0  0  0  0
   -2.1127    1.0750    1.4015 H   0  0  0  0  0  0  0  0  0  0  0  0
   -3.5492    0.9754    0.3751 H   0  0  0  0  0  0  0  0  0  0  0  0
   -2.8091   -0.5008    1.0034 H   0  0  0  0  0  0  0  0  0  0  0  0
   -1.5033    1.4285   -0.9813 H   0  0  0  0  0  0  0  0  0  0  0  0
   -2.2149   -0.1560   -1.4020 H   0  0  0  0  0  0  0  0  0  0  0  0
    1.9670    0.7123    1.5979 H   0  0  0  0  0  0  0  0  0  0  0  0
    1.5708   -0.9591    1.0808 H   0  0  0  0  0  0  0  0  0  0  0  0
    2.7970    1.1920   -0.7206 H   0  0  0  0  0  0  0  0  0  0  0  0
    3.6901   -0.1506    0.0130 H   0  0  0  0  0  0  0  0  0  0  0  0
    2.4344   -0.4765   -1.1887 H   0  0  0  0  0  0  0  0  0  0  0  0
  1  2  1  0  0  0  0
  2  3  1  0  0  0  0
  3  4  2  0  0  0  0
  3  5  1  0  0  0  0
  5  6  1  0  0  0  0
  6  7  1  0  0  0  0
  1  8  1  0  0  0  0
  1  9  1  0  0  0  0
  1 10  1  0  0  0  0
  2 11  1  0  0  0  0
  2 12  1  0  0  0  0
  6 13  1  0  0  0  0
  6 14  1  0  0  0  0
  7 15  1  0  0  0  0
  7 16  1  0  0  0  0
  7 17  1  0  0  0  0
M  END
