  21
 
 C         -0.4758605829       -2.8546814366       -0.0013950023
 C         -0.2293260787       -1.3755709116        0.0178220662
 C          1.0652709180       -0.8760411551        0.0174379145
 C          1.3068490844        0.4903864731        0.0178709395
 C          0.2269528641        1.3617784872        0.0175024061
 C         -1.0772144512        0.8877809497        0.0178776540
 C         -1.2918856528       -0.4831332641        0.0174467191
 C         -2.2348485794        1.8407821655       -0.0012779223
 C          2.7110178157        1.0163937772       -0.0012755852
 H         -0.5348591296       -3.2092202073       -1.0311586951
 H          0.3323141209       -3.3898410258        0.4922741898
 H         -1.4140335052       -3.0987605552        0.4920925231
 H          1.9000439357       -1.5632792039        0.0210641239
 H          0.4047058236        2.4283313824        0.0211819653
 H         -2.3044419774       -0.8624526591        0.0210849266
 H         -2.5125704246        2.0691810341       -1.0310162420
 H         -3.1024180488        1.4084926499        0.4924666733
 H         -1.9771693539        2.7753570390        0.4921772215
 H          3.0477429290        1.1425635923       -1.0310030915
 H          2.7704271884        1.9839040083        0.4923901067
 H          3.3914903029        0.3259675089        0.4922922327
          21
        -25.39165662
 C          2.8515356884       -0.5017903269        0.0008422344
 C          1.3729662966       -0.2508041067       -0.0020818197
 C          0.8906642109        1.0537436926       -0.0023896931
 C         -0.4690597016        1.3141755272        0.0000435798
 C         -1.3576058648        0.2442143519        0.0029599919
 C         -0.9033169159       -1.0636640316        0.0037247896
 C          0.4675413577       -1.2981693969        0.0009184590
 C         -1.8609894107       -2.2178192117       -0.0024646203
 C         -0.9913835276        2.7199185777       -0.0004224211
 H          3.2995300046       -0.1084523633        0.9130218850
 H          3.0669950204       -1.5656565108       -0.0590035435
 H          3.3242923336       -0.0019021187       -0.8436140304
 H          1.5934288038        1.8756160325       -0.0038312749
 H         -2.4207977104        0.4416589021        0.0050717898
 H          0.8281446005       -2.3176575252        0.0012584859
 H         -1.8012288429       -2.7514053953       -0.9511129802
 H         -1.6156204276       -2.9221303446        0.7908898112
 H         -2.8838408414       -1.8768352650        0.1364861996
 H         -1.6203534888        2.8913136604        0.8724410623
 H         -0.1763320682        3.4392498201        0.0123632824
 H         -1.5984137001        2.8985239948       -0.8874427001
