18
 xtb: 6.7.1 (edcfbbe)
C            1.45427397265408       -1.21398512556940       -0.67496687714835
C            1.06517156025236       -0.22692559883146        0.42715452343543
C            1.31598027964346        1.21277919008946       -0.02832055387413
C           -0.36257724493689       -0.47358501324893        0.94700325577477
C           -1.50702686349327       -0.40114998142808       -0.05463360415476
O           -1.79514441893987        0.93179969391471       -0.52658234903529
H            1.26886567942204       -2.25003507882687       -0.36941229829651
H            2.51767391550366       -1.11910921165747       -0.92016607053882
H            0.88917175708568       -1.02692072208547       -1.59518872682129
H            1.72604938224888       -0.41474302435961        1.28518958001743
H            0.78430459061919        1.43556099223355       -0.95846295290340
H            2.38438955425926        1.37454998193461       -0.21002060172615
H            0.99043357110448        1.93543936124280        0.72786201748224
H           -0.57740083834109        0.22577715141155        1.76796799099019
H           -0.39565330635583       -1.48062678658670        1.38514820513452
H           -1.28872980383611       -0.99031373359538       -0.95111201080210
H           -2.41033511373774       -0.82757896117740        0.40553479907919
H           -1.93554912762466        1.48347940687558        0.25420401919983
