 18

C      2.630000     0.230000    -2.129000
C      1.931000    -1.014000    -1.603000
C      1.885000    -1.036000    -0.112000
C      2.921000    -1.631000     0.608000
C      2.878000    -1.652000     2.002000
C      1.800000    -1.079000     2.676000
C      0.764000    -0.484000     1.955000
C      0.807000    -0.463000     0.561000
H      2.658000     0.237000    -3.224000
H      3.660000     0.269000    -1.763000
H      2.119000     1.142000    -1.800000
H      2.445000    -1.911000    -1.970000
H      0.911000    -1.064000    -2.004000
H      3.765000    -2.080000     0.091000
H      3.685000    -2.115000     2.563000
H      1.766000    -1.095000     3.761000
H     -0.076000    -0.038000     2.479000
H     -0.005000     0.003000     0.008000
