  25
 
 C         -2.4573989214        0.7387647473       -1.2562364022
 C         -1.9730633440        0.0027203608        0.0011097942
 C         -2.4564018374        0.7441482721        1.2556617452
 C         -2.5972365851       -1.3953258573        0.0047844061
 C         -0.4525169383       -0.0350069177        0.0000407641
 C          0.2788184937       -1.2173304061       -0.0025107161
 C          1.6608788139       -1.2143009215       -0.0028640827
 C          2.3585025808       -0.0139038519       -0.0009252518
 C          1.6446561066        1.1769042250        0.0005412984
 C          0.2634524967        1.1583767123        0.0008967409
 O          3.7209377469       -0.0477808968       -0.0007329373
 H         -2.0978797974        0.2321577537       -2.1494856184
 H         -3.5449380510        0.7585734298       -1.2841891774
 H         -2.0980010191        1.7638075045       -1.2785188364
 H         -2.1008342897        0.2382127143        2.1508572996
 H         -2.0928023643        1.7677018224        1.2762336856
 H         -3.5438977287        0.7687865159        1.2814258485
 H         -2.3001056145       -1.9540604424        0.8892168909
 H         -3.6820282090       -1.3078013878        0.0117132336
 H         -2.3112068784       -1.9537843905       -0.8834201567
 H         -0.2209113188       -2.1719657581       -0.0043645640
 H          2.2169285033       -2.1385092181       -0.0045393743
 H          2.1734541037        2.1219330237        0.0014661117
 H         -0.2571646884        2.1042133485        0.0017919218
 H          4.0668918730        0.8526708563        0.0006488080
          25
        -32.61941784
 C         -2.5835064985        1.4040853560        0.0017949758
 C         -1.9651357756        0.0033705896       -0.0000640541
 C         -2.4515647019       -0.7349247734        1.2550149130
 C         -2.4513849958       -0.7320134797       -1.2568343392
 C         -0.4444771449        0.0344008434        0.0001527244
 C          0.2678761773       -1.1637912498        0.0000450792
 C          1.6463178715       -1.1920904632       -0.0000258713
 C          2.3660574835       -0.0025238490       -0.0000836160
 C          1.6747354521        1.1991704303       -0.0001889332
 C          0.2901063451        1.2120299357       -0.0000642592
 O          3.7275498122       -0.0629153592        0.0001972981
 H         -3.6685943887        1.3208134591        0.0033337819
 H         -2.2887485963        1.9609606386        0.8882899983
 H         -2.2912015260        1.9622541106       -0.8846627906
 H         -2.0923534027       -1.7599154619        1.2757818565
 H         -2.0934916942       -0.2304595979        2.1501029775
 H         -3.5391343382       -0.7543111741        1.2808881581
 H         -2.0921690284       -1.7569545461       -1.2798328896
 H         -3.5389699373       -0.7513674365       -1.2830197366
 H         -2.0931887320       -0.2255213823       -2.1506629014
 H         -0.2593661103       -2.1056402569       -0.0003446472
 H          2.1853504908       -2.1262624864       -0.0000978171
 H          2.2210451561        2.1341802850       -0.0001166343
 H         -0.2033028580        2.1701680307       -0.0002016682
 H          4.0911720083        0.8305180410        0.0004299016
