  25
 
 C         -1.0060000000        0.0250000000       -0.4340000000
 C         -2.0900000000        0.3300000000        0.6220000000
 C         -1.7780000000        1.6830000000        1.2950000000
 C         -3.4290000000        0.4950000000       -0.1340000000
 C         -2.1080000000       -0.7840000000        1.6810000000
 C         -3.2650000000       -1.5350000000        1.8860000000
 C         -3.2810000000       -2.5440000000        2.8490000000
 C         -2.1390000000       -2.8020000000        3.6070000000
 C         -0.9820000000       -2.0510000000        3.4030000000
 C         -0.9660000000       -1.0420000000        2.4400000000
 O         -2.1550000000       -3.7860000000        4.5470000000
 H         -1.1970000000       -0.9310000000       -0.9330000000
 H         -0.9620000000        0.7910000000       -1.2160000000
 H         -0.0120000000       -0.0320000000        0.0260000000
 H         -2.5190000000        1.9490000000        2.0560000000
 H         -0.8010000000        1.6610000000        1.7940000000
 H         -1.7570000000        2.4950000000        0.5590000000
 H         -4.2490000000        0.7150000000        0.5600000000
 H         -3.3860000000        1.3210000000       -0.8540000000
 H         -3.7010000000       -0.4180000000       -0.6760000000
 H         -4.1590000000       -1.3410000000        1.2990000000
 H         -4.1860000000       -3.1260000000        3.0030000000
 H         -0.0890000000       -2.2480000000        3.9900000000
 H         -0.0590000000       -0.4630000000        2.2870000000
 H         -1.2920000000       -3.8440000000        4.9880000000
