13
 xtb: 6.7.1 (edcfbbe)
C            1.81283703224409       -1.20629953600587        0.13952919512870
O            1.23098942753699       -0.20448880607141       -0.76216479009017
S           -0.11673080999000        0.52082813868874       -0.25987403320151
O           -0.50294363836119        1.36611441183787       -1.38065044234957
O            0.06646804483170        1.07790264677463        1.07957700594464
O           -1.17237055723139       -0.69922623402572       -0.20059248675862
C           -1.61364099042536       -1.16934656476068        1.12132578820745
H            1.15391545222995       -2.07565587095135        0.19764808699653
H            1.99648612151300       -0.77033369452723        1.12370257371339
H            2.75470483679488       -1.47693918399946       -0.33612861438182
H           -2.21487491593223       -0.39802220448384        1.60529529100238
H           -0.75961380783125       -1.45230835676248        1.73828032503723
H           -2.22352379484902       -2.04290707039901        0.89214377682188
