21
 xtb: 6.7.1 (edcfbbe)
C            2.45795330706585        0.00105021606538       -0.88089391334030
C            1.22263914316938       -0.36475520563675       -0.08260404544043
H            1.05119369729895       -1.44787419148859       -0.16460640656462
C           -0.01031607531314        0.38927974494832       -0.57367552478157
C           -1.30191526749954        0.15231615358424        0.22004195440429
C           -2.43490322284053        0.98645020011576       -0.38071202522847
C           -1.69134515834495       -1.32604617830070        0.26230492959480
O            1.51851854757404       -0.05002236207488        1.30328517042942
H            3.33315301444571       -0.54705979639560       -0.51873670428507
H            2.31110266828309       -0.24637640086798       -1.93643205088315
H            2.66071867127812        1.07517153452603       -0.80405195962587
H            0.22073697162957        1.46345502893986       -0.57410310951484
H           -0.18287627270070        0.09788726930103       -1.61956482874007
H           -1.14621714375507        0.49880394745354        1.25207468940644
H           -3.35881254037677        0.87114385334640        0.19605687998581
H           -2.63897815859400        0.66965305853859       -1.41096111140380
H           -2.17771982614283        2.05124744508217       -0.40072342288076
H           -0.94439996120350       -1.93619679198701        0.78091552801645
H           -2.64495424142673       -1.45867263446071        0.78448735712324
H           -1.80530099185764       -1.72396918518750       -0.75372011541671
H            0.77059840945441       -0.34927394173466        1.83632278835455
