 xtb: 6.7.1 (edcfbbe)
          04112512403D

 18 17  0     0  0            999 V2000
   -1.9468    1.4661    0.0737 C   0  0  0  0  0  0  0  0  0  0  0  0
   -1.4803    0.0906   -0.3903 C   0  0  0  0  0  0  0  0  0  0  0  0
   -0.1592   -0.3604    0.2453 C   0  0  0  0  0  0  0  0  0  0  0  0
   -0.1910   -0.1483    1.3197 H   0  0  0  0  0  0  0  0  0  0  0  0
    0.0338   -1.8642    0.0445 C   0  0  0  0  0  0  0  0  0  0  0  0
    1.0222    0.4204   -0.3489 C   0  0  0  0  0  0  0  0  0  0  0  0
    2.2297    0.2572    0.3649 O   0  0  0  0  0  0  0  0  0  0  0  0
   -2.0471    1.4872    1.1564 H   0  0  0  0  0  0  0  0  0  0  0  0
   -1.2463    2.2431   -0.2202 H   0  0  0  0  0  0  0  0  0  0  0  0
   -2.9137    1.6994   -0.3652 H   0  0  0  0  0  0  0  0  0  0  0  0
   -1.3714    0.0880   -1.4772 H   0  0  0  0  0  0  0  0  0  0  0  0
   -2.2507   -0.6393   -0.1338 H   0  0  0  0  0  0  0  0  0  0  0  0
   -0.8040   -2.4102    0.4708 H   0  0  0  0  0  0  0  0  0  0  0  0
    0.9403   -2.2137    0.5326 H   0  0  0  0  0  0  0  0  0  0  0  0
    0.0929   -2.0991   -1.0164 H   0  0  0  0  0  0  0  0  0  0  0  0
    0.8224    1.4928   -0.3088 H   0  0  0  0  0  0  0  0  0  0  0  0
    1.1613    0.1346   -1.4011 H   0  0  0  0  0  0  0  0  0  0  0  0
    2.4983   -0.6704    0.3212 H   0  0  0  0  0  0  0  0  0  0  0  0
  1  2  1  0  0  0  0
  2  3  1  0  0  0  0
  3  4  1  0  0  0  0
  3  5  1  0  0  0  0
  3  6  1  0  0  0  0
  6  7  1  0  0  0  0
  1  8  1  0  0  0  0
  1  9  1  0  0  0  0
  1 10  1  0  0  0  0
  2 11  1  0  0  0  0
  2 12  1  0  0  0  0
  5 13  1  0  0  0  0
  5 14  1  0  0  0  0
  5 15  1  0  0  0  0
  6 16  1  0  0  0  0
  6 17  1  0  0  0  0
  7 18  1  0  0  0  0
M  END
