18
 xtb: 6.7.1 (edcfbbe)
C           -2.25045763809057        0.88905716895519        0.17505626774757
C           -0.85241419756876        0.69018617424543       -0.44315371695992
C           -0.01349013972754       -0.38203095893786        0.26350153615274
H           -0.01837514781292       -0.17208764360238        1.34493031554905
C           -0.58577697768415       -1.78112153402357        0.03181957118941
C            1.43923059968981       -0.35772400702103       -0.20364936828864
O            2.11937995578624        0.87466182984365        0.10036192500753
H           -3.05142176790299        0.71467402783276       -0.54929342353043
H           -2.41906696367923        0.20214597156247        1.01100788078847
H           -2.37750962981052        1.90357314318736        0.56404293662049
H           -0.30342545926614        1.63717546252561       -0.42262403376306
H           -0.93770260064732        0.40686243819784       -1.50060768197776
H           -1.63947736705000       -1.83437847329956        0.32233428163175
H           -0.04172678916792       -2.53695682709885        0.60820215653870
H           -0.51853022441213       -2.05034780179832       -1.02955506894834
H            1.48272914314506       -0.46100016374207       -1.29475204490539
H            1.98634142005425       -1.20398535769710        0.23721938968860
H            2.11782561614429        0.96965554445419        1.06171898281642
