 xtb: 6.7.1 (edcfbbe)
          04112512083D

 17 16  0     0  0            999 V2000
   -2.5215    0.5446   -0.8132 C   0  0  0  0  0  0  0  0  0  0  0  0
   -1.8823   -0.4985    0.0959 C   0  0  0  0  0  0  0  0  0  0  0  0
   -0.8356    0.1183    1.0202 C   0  0  0  0  0  0  0  0  0  0  0  0
    0.2628    0.6634    0.2756 O   0  0  0  0  0  0  0  0  0  0  0  0
    1.2810   -0.1333   -0.0270 C   0  0  0  0  0  0  0  0  0  0  0  0
    1.3489   -1.2961    0.3167 O   0  0  0  0  0  0  0  0  0  0  0  0
    2.3206    0.5836   -0.8353 C   0  0  0  0  0  0  0  0  0  0  0  0
   -3.0501    1.2879   -0.2219 H   0  0  0  0  0  0  0  0  0  0  0  0
   -1.7602    1.0505   -1.4020 H   0  0  0  0  0  0  0  0  0  0  0  0
   -3.2277    0.0722   -1.4902 H   0  0  0  0  0  0  0  0  0  0  0  0
   -1.4020   -1.2764   -0.5021 H   0  0  0  0  0  0  0  0  0  0  0  0
   -2.6425   -0.9719    0.7174 H   0  0  0  0  0  0  0  0  0  0  0  0
   -1.2480    0.9652    1.5701 H   0  0  0  0  0  0  0  0  0  0  0  0
   -0.4476   -0.6348    1.7131 H   0  0  0  0  0  0  0  0  0  0  0  0
    2.1517    1.6539   -0.7909 H   0  0  0  0  0  0  0  0  0  0  0  0
    2.2506    0.2442   -1.8665 H   0  0  0  0  0  0  0  0  0  0  0  0
    3.3080    0.3264   -0.4634 H   0  0  0  0  0  0  0  0  0  0  0  0
  1  2  1  0  0  0  0
  2  3  1  0  0  0  0
  3  4  1  0  0  0  0
  4  5  1  0  0  0  0
  5  6  2  0  0  0  0
  5  7  1  0  0  0  0
  1  8  1  0  0  0  0
  1  9  1  0  0  0  0
  1 10  1  0  0  0  0
  2 11  1  0  0  0  0
  2 12  1  0  0  0  0
  3 13  1  0  0  0  0
  3 14  1  0  0  0  0
  7 15  1  0  0  0  0
  7 16  1  0  0  0  0
  7 17  1  0  0  0  0
M  END
