 xtb: 6.7.1 (edcfbbe)
          04082510373D

 16 15  0     0  0            999 V2000
   -2.0240    0.3046   -0.6788 C   0  0  0  0  0  0  0  0  0  0  0  0
   -1.4422   -0.7607    0.2419 C   0  0  0  0  0  0  0  0  0  0  0  0
   -0.2295   -0.2402    1.0282 C   0  0  0  0  0  0  0  0  0  0  0  0
    0.8932    0.1954    0.1174 C   0  0  0  0  0  0  0  0  0  0  0  0
    1.1689    1.3688   -0.0465 O   0  0  0  0  0  0  0  0  0  0  0  0
    1.6470   -0.9069   -0.5651 C   0  0  0  0  0  0  0  0  0  0  0  0
   -1.2856    0.6312   -1.4087 H   0  0  0  0  0  0  0  0  0  0  0  0
   -2.3341    1.1753   -0.1056 H   0  0  0  0  0  0  0  0  0  0  0  0
   -2.8884   -0.0837   -1.2114 H   0  0  0  0  0  0  0  0  0  0  0  0
   -1.1560   -1.6358   -0.3425 H   0  0  0  0  0  0  0  0  0  0  0  0
   -2.2035   -1.0730    0.9584 H   0  0  0  0  0  0  0  0  0  0  0  0
   -0.5347    0.6176    1.6303 H   0  0  0  0  0  0  0  0  0  0  0  0
    0.1338   -1.0303    1.6856 H   0  0  0  0  0  0  0  0  0  0  0  0
    0.9621   -1.5182   -1.1466 H   0  0  0  0  0  0  0  0  0  0  0  0
    2.1103   -1.5441    0.1839 H   0  0  0  0  0  0  0  0  0  0  0  0
    2.4114   -0.4919   -1.2161 H   0  0  0  0  0  0  0  0  0  0  0  0
  1  2  1  0  0  0  0
  2  3  1  0  0  0  0
  3  4  1  0  0  0  0
  4  5  2  0  0  0  0
  4  6  1  0  0  0  0
  1  7  1  0  0  0  0
  1  8  1  0  0  0  0
  1  9  1  0  0  0  0
  2 10  1  0  0  0  0
  2 11  1  0  0  0  0
  3 12  1  0  0  0  0
  3 13  1  0  0  0  0
  6 14  1  0  0  0  0
  6 15  1  0  0  0  0
  6 16  1  0  0  0  0
M  END
