17
 xtb: 6.7.1 (edcfbbe)
C           -2.64159509881683        0.38356842920373        0.96758533779255
C           -2.16969613911905        0.40293014707564       -0.48310293360306
C           -0.87600787265984       -0.34726578874971       -0.70348060571455
O            0.17097255228906        0.34662164891938        0.04811104228076
C            1.40184451468661       -0.19323899037278        0.00201331858640
O            1.66069771049669       -1.21177433775524       -0.62008590665356
C            2.38429742337154        0.60680893198204        0.79509875767163
H           -1.92535313660984        0.88155495327344        1.62819516505273
H           -3.60213588653089        0.89714993247019        1.07042293091875
H           -2.76930297923086       -0.64526868168476        1.32173999819410
H           -2.05392340856707        1.43410513072723       -0.83757302530889
H           -2.92000747241759       -0.06985584819186       -1.12790216268798
H           -0.93925288622525       -1.37691379059702       -0.33561871905957
H           -0.58757838078526       -0.36112983856281       -1.75891074077319
H            3.36461691094317        0.13324472488367        0.76089339248045
H            2.04401451653708        0.69050176369595        1.83138800692418
H            2.44602991448116        1.62029566346354        0.38712051076139
