21
 xtb: 6.7.1 (edcfbbe)
C            1.39997770185023       -0.68978471316375       -1.01871669559262
C            1.09764270135686       -0.08454743324814        0.34757785941982
C            2.24737029176954        0.78447013994547        0.83028151008522
O           -0.05545095145096        0.78515044106063        0.34444840441285
C           -1.37706751925551        0.22169952511153        0.13406452738210
C           -1.75557400816983        0.18039283529516       -1.34337636623129
C           -1.58896130760564       -1.11656012377359        0.82411469123498
H            1.43840823548929        0.09400496017655       -1.78349179406811
H            2.37462159635321       -1.18833998587844       -0.98739322028874
H            0.65654711333294       -1.43360804284526       -1.31357003024418
H            0.93626414602040       -0.89339867459935        1.07385451386084
H            2.02061145810559        1.22454089167402        1.80602578852751
H            2.44178448693857        1.59362144812789        0.11759511826231
H            3.15675773196348        0.18411805540676        0.92593751658460
H           -2.02839509208311        0.95947608872488        0.61988304415938
H           -1.51310504223217        1.13130976487043       -1.82767864038721
H           -1.25023705753682       -0.62627475990498       -1.88026427687475
H           -2.83542120874471        0.02031622285850       -1.43514787009482
H           -2.64881088639524       -1.38089812213472        0.75583480762238
H           -1.32145849292275       -1.06610043532524        1.88420377007055
H           -1.01534087440799       -1.91917541932282        0.35025267919823
