  21
 
 C          3.3740000000       -3.4620000000       -2.4150000000
 C          2.1480000000       -2.7020000000       -1.9120000000
 C          2.0620000000       -2.7650000000       -0.3810000000
 C          0.8740000000       -1.9670000000        0.1500000000
 C          0.8990000000       -0.5230000000       -0.3430000000
 C          0.9870000000       -0.4520000000       -1.8650000000
 C          2.1750000000       -1.2470000000       -2.3990000000
 H          3.3520000000       -4.5000000000       -2.0670000000
 H          3.4020000000       -3.4670000000       -3.5090000000
 H          4.2930000000       -2.9950000000       -2.0490000000
 H          1.2560000000       -3.1890000000       -2.3280000000
 H          1.9730000000       -3.8080000000       -0.0540000000
 H          2.9860000000       -2.3710000000        0.0610000000
 H         -0.0600000000       -2.4460000000       -0.1710000000
 H          0.8790000000       -1.9820000000        1.2460000000
 H         -0.0010000000       -0.0010000000        0.0000000000
 H          1.7600000000       -0.0040000000        0.0960000000
 H          0.0600000000       -0.8420000000       -2.3030000000
 H          1.0720000000        0.5950000000       -2.1790000000
 H          2.1660000000       -1.2190000000       -3.4950000000
 H          3.1070000000       -0.7630000000       -2.0770000000
