 15

C      1.885000    -1.036000    -0.112000
C      2.921000    -1.631000     0.608000
C      2.878000    -1.652000     2.002000
C      1.800000    -1.079000     2.676000
C      0.764000    -0.484000     1.955000
C      0.807000    -0.463000     0.561000
O     -0.289000     0.075000     2.611000
N      3.933000    -2.257000     2.736000
O      3.875000    -2.265000     3.989000
O      4.894000    -2.767000     2.110000
H      1.919000    -1.020000    -1.198000
H      3.756000    -2.074000     0.071000
H      1.760000    -1.091000     3.763000
H      0.003000    -0.001000    -0.006000
H     -0.923000     0.445000     1.977000
