  15
 
 C          1.8850000000       -1.0360000000       -0.1120000000
 C          2.9210000000       -1.6310000000        0.6080000000
 C          2.8780000000       -1.6520000000        2.0020000000
 C          1.8000000000       -1.0790000000        2.6760000000
 C          0.7640000000       -0.4840000000        1.9550000000
 C          0.8070000000       -0.4630000000        0.5610000000
 O         -0.2890000000        0.0750000000        2.6110000000
 N          3.9330000000       -2.2570000000        2.7360000000
 O          3.8750000000       -2.2650000000        3.9890000000
 O          4.8940000000       -2.7670000000        2.1100000000
 H          1.9190000000       -1.0200000000       -1.1980000000
 H          3.7560000000       -2.0740000000        0.0710000000
 H          1.7600000000       -1.0910000000        3.7630000000
 H          0.0030000000       -0.0010000000       -0.0060000000
 H         -0.9230000000        0.4450000000        1.9770000000
