  22
 
 C          4.2200578794        1.2282850554       -0.0005650277
 C          2.9233547277        1.7156791599       -0.0008359436
 C          1.8478199978        0.8441927318       -0.0009280402
 C          2.0709159821       -0.5338441961       -0.0007962457
 C          3.3633430711       -1.0271534655       -0.0004806476
 C          4.4314393837       -0.1396506096       -0.0003534192
 Cl         6.0372086183       -0.7623313941        0.0000633566
 O          1.0360757902       -1.4402443390       -0.0009684815
 C         -0.2249415290       -0.9111178582       -0.0007499968
 C         -1.2964606850       -1.7864252937       -0.0004969530
 C         -2.5954493084       -1.2967395720       -0.0001940910
 C         -2.8323767372        0.0735191115       -0.0001063171
 C         -1.7477912410        0.9535074796       -0.0004043529
 C         -0.4435853929        0.4700729218       -0.0007616506
 O          0.5789160510        1.3757090305       -0.0011243534
 Cl        -1.9989998276        2.6493791987       -0.0003531379
 Cl        -4.4316282053        0.6896833102        0.0003732165
 Cl        -3.9120661453       -2.3956182146        0.0000961030
 H          5.0561187721        1.9080085367       -0.0004989421
 H          2.7273181492        2.7753014798       -0.0009780418
 H          3.5181782388       -2.0932617573       -0.0003438958
 H         -1.1076911134       -2.8467713148       -0.0005391751
          22
        -54.09639900
 C          4.2193788740        1.2281142891        0.0000468048
 C          2.9226204468        1.7153612931       -0.0002510035
 C          1.8471846039        0.8437528566       -0.0004487390
 C          2.0704369261       -0.5342587574       -0.0003968550
 C          3.3629199597       -1.0274214143       -0.0000549445
 C          4.4309155667       -0.1397973963        0.0001786321
 Cl         6.0367554169       -0.7622960244        0.0006274613
 O          1.0356995856       -1.4407762863       -0.0006751672
 C         -0.2253777662       -0.9117928896       -0.0004792327
 C         -1.2967976174       -1.7872219005       -0.0003318955
 C         -2.5958418023       -1.2976835761       -0.0000558798
 C         -2.8329246964        0.0725482100        0.0001106701
 C         -1.7484390341        0.9526596387       -0.0000807615
 C         -0.4441783314        0.4693730736       -0.0004105683
 O          0.5782203721        1.3751252034       -0.0006678035
 Cl        -1.9998400268        2.6485028398        0.0000698520
 Cl        -4.4322460814        0.6885309332        0.0005580198
 Cl        -3.9123339689       -2.3967116015        0.0001029029
 H          5.0553626393        1.9079326133        0.0001951571
 H          2.7264636565        2.7749613724       -0.0003327648
 H          3.5178760757       -2.0935121395        0.0000191807
 H         -1.1079077435       -2.8475464934       -0.0004348309
