 22

C     -1.004000    -0.257000     0.326000
C     -1.437000    -1.582000     0.269000
C     -2.727000    -1.905000     0.689000
C     -3.580000    -0.910000     1.163000
C     -3.149000     0.415000     1.220000
C     -1.858000     0.740000     0.800000
Cl    -1.320000     2.374000     0.864000
O     -4.856000    -1.183000     1.585000
C     -5.239000    -2.498000     1.512000
C     -6.529000    -2.821000     1.932000
C     -6.962000    -4.146000     1.875000
C     -6.107000    -5.143000     1.401000
C     -4.817000    -4.818000     0.982000
C     -4.386000    -3.494000     1.038000
O     -3.109000    -3.220000     0.616000
Cl    -3.729000    -6.034000     0.383000
Cl    -6.660000    -6.792000     1.334000
Cl    -8.574000    -4.476000     2.411000
H      0.003000    -0.014000    -0.005000
H     -0.767000    -2.353000    -0.102000
H     -3.820000     1.186000     1.590000
H     -7.186000    -2.037000     2.299000
