 xtb: 6.7.1 (edcfbbe)
          04112511103D

 18 17  0     0  0            999 V2000
    1.9594    0.1731    0.7710 C   0  0  0  0  0  0  0  0  0  0  0  0
    1.4304   -0.6832   -0.3758 C   0  0  0  0  0  0  0  0  0  0  0  0
    0.2496   -0.0712   -1.1352 C   0  0  0  0  0  0  0  0  0  0  0  0
   -1.0628    0.1391   -0.3552 C   0  0  0  0  0  0  0  0  0  0  0  0
   -1.8590    0.2972   -1.0944 H   0  0  0  0  0  0  0  0  0  0  0  0
   -1.4424   -1.0534    0.5217 C   0  0  0  0  0  0  0  0  0  0  0  0
   -1.0640    1.3503    0.3824 O   0  0  0  0  0  0  0  0  0  0  0  0
    2.9170   -0.2145    1.1124 H   0  0  0  0  0  0  0  0  0  0  0  0
    1.2819    0.1653    1.6217 H   0  0  0  0  0  0  0  0  0  0  0  0
    2.1053    1.2004    0.4448 H   0  0  0  0  0  0  0  0  0  0  0  0
    2.2358   -0.8250   -1.1004 H   0  0  0  0  0  0  0  0  0  0  0  0
    1.1571   -1.6704   -0.0010 H   0  0  0  0  0  0  0  0  0  0  0  0
    0.5454    0.9019   -1.5353 H   0  0  0  0  0  0  0  0  0  0  0  0
    0.0234   -0.7211   -1.9827 H   0  0  0  0  0  0  0  0  0  0  0  0
   -1.4808   -1.9567   -0.0798 H   0  0  0  0  0  0  0  0  0  0  0  0
   -0.7234   -1.1913    1.3249 H   0  0  0  0  0  0  0  0  0  0  0  0
   -2.4213   -0.8822    0.9631 H   0  0  0  0  0  0  0  0  0  0  0  0
   -0.4078    1.2859    1.0896 H   0  0  0  0  0  0  0  0  0  0  0  0
  1  2  1  0  0  0  0
  2  3  1  0  0  0  0
  3  4  1  0  0  0  0
  4  5  1  0  0  0  0
  4  6  1  0  0  0  0
  4  7  1  0  0  0  0
  1  8  1  0  0  0  0
  1  9  1  0  0  0  0
  1 10  1  0  0  0  0
  2 11  1  0  0  0  0
  2 12  1  0  0  0  0
  3 13  1  0  0  0  0
  3 14  1  0  0  0  0
  6 15  1  0  0  0  0
  6 16  1  0  0  0  0
  6 17  1  0  0  0  0
  7 18  1  0  0  0  0
M  END
