14
 xtb: 6.7.1 (edcfbbe)
C           -1.25569699165342        0.30444598079545       -0.22383422859804
C            0.14591063132302        0.64691875562335        0.26915042713458
C            1.22378319241362       -0.24521622289055       -0.34586995407545
O            1.18989814823572       -1.58425990183704        0.17052710419153
O            0.36395392037071        2.01071219982453       -0.12659435942009
O           -1.61422088701388       -1.05502764209584        0.07950825179862
H           -1.29027660277516        0.39615385465539       -1.31468944188888
H           -1.98279780351360        1.00306570326490        0.20946475795442
H            0.18125152631652        0.55119688001053        1.36599267017164
H            2.21008199357416        0.16203956706335       -0.09707584063081
H            1.11653044567573       -0.24322126032275       -1.44170033012788
H            0.26982841991842       -1.87965713258641        0.07806308016048
H            1.20512081774339        2.29362915853681        0.25527212192346
H           -1.72980648875221       -1.11675870448126        1.03765620307560
