19
 xtb: 6.7.1 (edcfbbe)
C            2.48656392220196        0.79742485416533        0.32007370289854
C            1.25393699766724       -0.10272007560003        0.23821338674548
C            1.43233377533067       -1.16177345671349       -0.85117326823581
C            0.00776035393597        0.74269614594228       -0.02475329366947
C           -1.31279932587029        0.03132542215604        0.12038447360610
O           -1.42844427894374       -1.00794657544891        0.76418204423342
C           -2.49009826219114        0.67188619278161       -0.55246747527035
H            2.62842877190695        1.34164984296736       -0.62143416479798
H            2.39031891112561        1.53437534534889        1.12459091166524
H            3.38976440666865        0.20667410476142        0.50561807071757
H            1.12595715696458       -0.60881591333199        1.20314821297927
H            1.58624473386247       -0.68250951572073       -1.82553771178527
H            0.55759711488952       -1.81528424026266       -0.92954190146419
H            2.30465161731314       -1.79049707090735       -0.64383941502690
H            0.05269816453390        1.21130019224406       -1.01663512317409
H           -0.04597452387998        1.58002681588395        0.68973717469579
H           -2.46569411020391        1.75889323562940       -0.42684609574715
H           -2.41095851247814        0.47634814542213       -1.62966392766656
H           -3.42996260995860        0.25956036059847       -0.18122894125188
