  12
 
 C          0.0002872998       -2.5655478701        0.0002940574
 C          1.2012672553       -1.8787916606        0.0002474152
 C          1.2011168233       -0.4921988542        0.0000798466
 C          0.0000326221        0.2151030826       -0.0000229453
 C         -1.2009215683       -0.4924203640        0.0000241299
 C         -1.2008180035       -1.8790147336        0.0001737411
 Cl        -2.6927508048        0.3624702757       -0.0001053548
 Cl        -0.0001301294        1.9332298696       -0.0001101580
 Cl         2.6927896455        0.3629702892        0.0001255597
 H          0.0003829936       -3.6439898928        0.0002657143
 H          2.1413526455       -2.4063291171        0.0002891149
 H         -2.1408065546       -2.4067312927        0.0001027872
          12
        -28.02715423
 C          0.0001043166       -2.5685874548        0.0000804306
 C          1.2011333971       -1.8819203702       -0.0000259621
 C          1.2009821614       -0.4953895610       -0.0000277383
 C         -0.0000153763        0.2119686431        0.0000319657
 C         -1.2009786961       -0.4954522481       -0.0000161756
 C         -1.2009754475       -1.8819646158       -0.0000101734
 Cl        -2.6927022145        0.3598421864       -0.0000447708
 Cl        -0.0001292791        1.9300896014        0.0000563020
 Cl         2.6927418053        0.3599897783       -0.0000374301
 H          0.0000497232       -3.6469567231        0.0001647582
 H          2.1410150584       -2.4097197588        0.0001094800
 H         -2.1408934341       -2.4097360609        0.0002512869
