 xtb: 6.7.1 (edcfbbe)
          04112511243D

 18 17  0     0  0            999 V2000
    2.2470   -1.0203    0.3426 C   0  0  0  0  0  0  0  0  0  0  0  0
    1.6178    0.0320   -0.5647 C   0  0  0  0  0  0  0  0  0  0  0  0
    0.4471    0.7769    0.0913 C   0  0  0  0  0  0  0  0  0  0  0  0
   -0.9375    0.2543   -0.3173 C   0  0  0  0  0  0  0  0  0  0  0  0
   -1.0231    0.2974   -1.4169 H   0  0  0  0  0  0  0  0  0  0  0  0
   -1.1986   -1.1767    0.1382 C   0  0  0  0  0  0  0  0  0  0  0  0
   -1.9639    1.0555    0.2531 O   0  0  0  0  0  0  0  0  0  0  0  0
    1.5192   -1.7675    0.6442 H   0  0  0  0  0  0  0  0  0  0  0  0
    2.6488   -0.5529    1.2387 H   0  0  0  0  0  0  0  0  0  0  0  0
    3.0614   -1.5228   -0.1744 H   0  0  0  0  0  0  0  0  0  0  0  0
    2.3908    0.7538   -0.8350 H   0  0  0  0  0  0  0  0  0  0  0  0
    1.2755   -0.4371   -1.4894 H   0  0  0  0  0  0  0  0  0  0  0  0
    0.5306    0.7213    1.1784 H   0  0  0  0  0  0  0  0  0  0  0  0
    0.4938    1.8328   -0.1874 H   0  0  0  0  0  0  0  0  0  0  0  0
   -1.0423   -1.2573    1.2106 H   0  0  0  0  0  0  0  0  0  0  0  0
   -2.2323   -1.4343   -0.0782 H   0  0  0  0  0  0  0  0  0  0  0  0
   -0.5451   -1.8676   -0.3832 H   0  0  0  0  0  0  0  0  0  0  0  0
   -1.8310    1.9786    0.0002 H   0  0  0  0  0  0  0  0  0  0  0  0
  1  2  1  0  0  0  0
  2  3  1  0  0  0  0
  3  4  1  0  0  0  0
  4  5  1  0  0  0  0
  4  6  1  0  0  0  0
  4  7  1  0  0  0  0
  1  8  1  0  0  0  0
  1  9  1  0  0  0  0
  1 10  1  0  0  0  0
  2 11  1  0  0  0  0
  2 12  1  0  0  0  0
  3 13  1  0  0  0  0
  3 14  1  0  0  0  0
  6 15  1  0  0  0  0
  6 16  1  0  0  0  0
  6 17  1  0  0  0  0
  7 18  1  0  0  0  0
M  END
