 xtb: 6.7.1 (edcfbbe)
          04112512133D

 24 24  0     0  0            999 V2000
   -2.7005   -1.1130   -0.0063 C   0  0  0  0  0  0  0  0  0  0  0  0
   -2.3767    0.3700   -0.1431 C   0  0  0  0  0  0  0  0  0  0  0  0
   -0.9114    0.6548   -0.4796 C   0  0  0  0  0  0  0  0  0  0  0  0
    0.0701    0.2480    0.6300 C   0  0  0  0  0  0  0  0  0  0  0  0
    0.7288   -1.1129    0.3704 C   0  0  0  0  0  0  0  0  0  0  0  0
    1.9309   -0.8217   -0.5450 C   0  0  0  0  0  0  0  0  0  0  0  0
    2.1686    0.6961   -0.4666 C   0  0  0  0  0  0  0  0  0  0  0  0
    1.2887    1.1740    0.6879 C   0  0  0  0  0  0  0  0  0  0  0  0
   -3.7653   -1.2498    0.1691 H   0  0  0  0  0  0  0  0  0  0  0  0
   -2.4335   -1.6468   -0.9159 H   0  0  0  0  0  0  0  0  0  0  0  0
   -2.1597   -1.5530    0.8273 H   0  0  0  0  0  0  0  0  0  0  0  0
   -3.0001    0.7946   -0.9340 H   0  0  0  0  0  0  0  0  0  0  0  0
   -2.6349    0.8815    0.7875 H   0  0  0  0  0  0  0  0  0  0  0  0
   -0.6509    0.1436   -1.4075 H   0  0  0  0  0  0  0  0  0  0  0  0
   -0.8176    1.7282   -0.6606 H   0  0  0  0  0  0  0  0  0  0  0  0
   -0.4604    0.2538    1.5862 H   0  0  0  0  0  0  0  0  0  0  0  0
    1.0750   -1.5312    1.3170 H   0  0  0  0  0  0  0  0  0  0  0  0
    0.0432   -1.8266   -0.0802 H   0  0  0  0  0  0  0  0  0  0  0  0
    2.8083   -1.3757   -0.2130 H   0  0  0  0  0  0  0  0  0  0  0  0
    1.7230   -1.1252   -1.5707 H   0  0  0  0  0  0  0  0  0  0  0  0
    3.2180    0.9387   -0.3052 H   0  0  0  0  0  0  0  0  0  0  0  0
    1.8530    1.1768   -1.3928 H   0  0  0  0  0  0  0  0  0  0  0  0
    1.8088    1.0276    1.6364 H   0  0  0  0  0  0  0  0  0  0  0  0
    1.0245    2.2273    0.6031 H   0  0  0  0  0  0  0  0  0  0  0  0
  1  2  1  0  0  0  0
  2  3  1  0  0  0  0
  3  4  1  0  0  0  0
  4  5  1  0  0  0  0
  5  6  1  0  0  0  0
  6  7  1  0  0  0  0
  4  8  1  0  0  0  0
  7  8  1  0  0  0  0
  1  9  1  0  0  0  0
  1 10  1  0  0  0  0
  1 11  1  0  0  0  0
  2 12  1  0  0  0  0
  2 13  1  0  0  0  0
  3 14  1  0  0  0  0
  3 15  1  0  0  0  0
  4 16  1  0  0  0  0
  5 17  1  0  0  0  0
  5 18  1  0  0  0  0
  6 19  1  0  0  0  0
  6 20  1  0  0  0  0
  7 21  1  0  0  0  0
  7 22  1  0  0  0  0
  8 23  1  0  0  0  0
  8 24  1  0  0  0  0
M  END
