18
 xtb: 6.7.1 (edcfbbe)
C           -1.91039031816783        1.49794594926869       -0.02027685970333
C           -1.50314071650471        0.05925644062729       -0.33375479091551
C           -0.17357786758179       -0.38516935876561        0.29519277887900
H           -0.23552654282815       -0.22291618207077        1.38141663060360
C            0.06680016401832       -1.87138009319267        0.02867339666636
C            0.97759553731407        0.46521771419178       -0.23726559264634
O            2.25028036383592        0.14921716966789        0.36320643254674
H           -1.88684854965736        1.68527377988302        1.05965485633993
H           -1.25315562535010        2.22876532416402       -0.50171770740670
H           -2.92889670484618        1.69626416464028       -0.37037778120961
H           -1.44429067019327       -0.08234398197401       -1.42195951914197
H           -2.28653462601032       -0.62069940257418        0.02254157513252
H           -0.77481690459988       -2.46986424788927        0.39314576087097
H            0.96811143177429       -2.24176464674194        0.52896304435231
H            0.17232685054800       -2.05812071447433       -1.04742555058693
H            0.81180760972211        1.52143206219578       -0.01018546182534
H            1.04043298260463        0.35719248530194       -1.33110595089111
H            2.50014241716537       -0.73466601973855        0.06841719046710
