  21
 
 C         -3.0090768158        0.2563615672       -0.0094893081
 C         -1.6396773862       -0.4068935588        0.0654004529
 C         -0.5250934902        0.5857459595       -0.2566821450
 C          0.8900009302        0.0259237851       -0.0413344373
 C          1.9200563032        1.1280018211       -0.3257656867
 C          1.1686289547       -1.1789412985       -0.9483845432
 O          0.9693920672       -0.3619900719        1.3231696900
 H         -3.7932097366       -0.4609928220        0.2215131638
 H         -3.1888933916        0.6511380182       -1.0076429648
 H         -3.0766584195        1.0780749035        0.6999932710
 H         -1.4739163922       -0.7997467702        1.0690526300
 H         -1.6100514313       -1.2412425010       -0.6373213537
 H         -0.6158123487        0.9234930461       -1.2905751201
 H         -0.6372468229        1.4536073920        0.3958309791
 H          2.9315496940        0.7524252781       -0.1752816143
 H          1.7608315952        1.9670537845        0.3477158608
 H          1.8309610058        1.4783549168       -1.3502413148
 H          2.2129190467       -1.4779901736       -0.8684542589
 H          0.9594763086       -0.9301540071       -1.9848782905
 H          0.5489863771       -2.0211543899       -0.6537688144
 H          1.8537086997       -0.7064933717        1.4884124285
          21
        -24.05926601
 C         -2.9973755453       -0.2464351642       -0.0423971378
 C         -1.6272700868        0.4150164720        0.0423479312
 C         -0.5116108269       -0.5559992740       -0.3402633630
 C          0.9025735098       -0.0307699995       -0.0205269967
 C          1.2078007081        1.2662543472       -0.7694341950
 C          1.9327893447       -1.1044302278       -0.3986280607
 O          1.0123066154        0.2770525970        1.3610423718
 H         -3.0607378080       -1.0923664124        0.6393553105
 H         -3.1850769110       -0.6072995338       -1.0517471866
 H         -3.7796544276        0.4622932848        0.2192356247
 H         -1.6064176461        1.2788970109       -0.6233026384
 H         -1.4525548220        0.7716273409        1.0595476983
 H         -0.6598607076       -1.4917429066        0.2088772932
 H         -0.5707688596       -0.7875836637       -1.4051793244
 H          2.2461239780        1.5432349427       -0.6084555474
 H          0.5819490392        2.0670409620       -0.3886019725
 H          1.0315960085        1.1415212817       -1.8337854078
 H          1.9207689707       -1.2816658682       -1.4703845149
 H          1.7148763881       -2.0426314493        0.1100476844
 H          2.9284657986       -0.7776614338       -0.1078863039
 H          0.8481719563       -0.5265439622        1.8668030063
