 21

C      1.089000    -0.158000    -0.533000
C      0.860000    -1.143000    -1.670000
C      0.407000    -2.509000    -1.141000
C      0.154000    -3.566000    -2.235000
C     -0.291000    -4.881000    -1.586000
C      1.384000    -3.807000    -3.112000
O     -0.913000    -3.105000    -3.068000
H      1.412000     0.815000    -0.916000
H      1.853000    -0.527000     0.158000
H      0.163000    -0.011000     0.032000
H      0.107000    -0.730000    -2.351000
H      1.793000    -1.245000    -2.235000
H      1.154000    -2.886000    -0.430000
H     -0.523000    -2.358000    -0.578000
H     -0.478000    -5.650000    -2.345000
H     -1.235000    -4.749000    -1.044000
H      0.461000    -5.261000    -0.888000
H      1.186000    -4.559000    -3.882000
H      2.215000    -4.203000    -2.516000
H      1.720000    -2.884000    -3.596000
H     -1.047000    -3.788000    -3.741000
