18
 xtb: 6.7.1 (edcfbbe)
C            2.28274073329523        0.50814719352042        0.32421292739920
C            1.32230081570618       -0.67687604006689        0.21095795955486
C            0.26679755992618       -0.51401099737157       -0.89907233770073
C           -1.08271409266281        0.05933150651189       -0.45363875015411
H           -1.67433021902548        0.26770724975453       -1.35270404202111
C           -1.87389507722443       -0.88348234053166        0.44163471566286
O           -0.93529757099144        1.35299846187672        0.18263406258144
H            2.83056320723457        0.65057977149870       -0.61407486926066
H            3.01851181203569        0.34392108635691        1.11880719301173
H            1.75713827930299        1.44297828164711        0.54337747311224
H            1.90986103789795       -1.58039821201769        0.01399487919438
H            0.83301494956155       -0.84600835493827        1.17863594820876
H            0.67473909103150        0.12867491977367       -1.68969704165756
H            0.05718908721582       -1.48436011434765       -1.36502627485387
H           -1.33199361616963       -1.10483011246785        1.36761852402310
H           -2.83674899116103       -0.43683322925662        0.70737011156738
H           -2.06494202255560       -1.82927729449893       -0.07557730670973
H           -0.48505254272080        1.20670158103710        1.02572686234786
