15
CONF2
C -2.5029442833 -0.0183167138 -0.2311258858
C -1.2055152962 0.0141948714 0.5722081347
C 0.0054579411 -0.0132982775 -0.3380716909
O 1.1939970407 0.0185799840 0.4631012951
C 2.3677928115 -0.0026856993 -0.3478934118
H -2.5725936860 0.8438715053 -0.9029942246
H -2.5668903802 -0.9258922290 -0.8409609171
H -3.3729653327 0.0020039579 0.4313922456
H -1.1618886995 -0.8453757263 1.2517401658
H -1.1678884600 0.9196342412 1.1897000806
H 0.0033209327 -0.9254924128 -0.9570524006
H -0.0028220602 0.8538843595 -1.0186071141
H 2.4136666604 -0.9185201293 -0.9549740408
H 3.2300024214 0.0263165153 0.3228862313
H 2.4024204818 0.8685756699 -1.0179933411
15
CONF3
C -2.0447903391 0.6410868520 -0.1626079184
C -1.3069791775 -0.5507626221 0.4417525438
C 0.0860929457 -0.7437363191 -0.1229942843
O 0.8934430833 0.3945520820 0.2078590723
C 2.2109924056 0.2664455955 -0.3221997174
H -1.5388980471 1.5838238090 0.0654279221
H -2.1070292132 0.5475862458 -1.2526421104
H -3.0649473625 0.7086675788 0.2275971106
H -1.8667632011 -1.4734043209 0.2473481563
H -1.2405169273 -0.4457718750 1.5317897240
H 0.5509735159 -1.6520973751 0.2919885100
H 0.0450428921 -0.8558277726 -1.2192573333
H 2.7729623665 1.1549424234 -0.0236652965
H 2.1926756490 0.2030031626 -1.4199812060
H 2.7130029747 -0.6279201198 0.0752647027
15
CONF4
C -1.8293766454 0.3184071555 -0.6155320706
C -1.0720684412 0.2206715736 0.7044298367
C 0.0669442603 -0.7897236351 0.6620013676
O 1.0069501304 -0.5736636615 -0.4037283069
C 1.7429456860 0.6401458769 -0.2500307519
H -2.6854207468 0.9952502945 -0.5288550491
H -1.1859388581 0.6976688070 -1.4164008598
H -2.2049348569 -0.6636505274 -0.9256138030
H -1.7487718713 -0.1020461843 1.5056912234
H -0.6943801542 1.2064354625 1.0004997924
H 0.6053900840 -0.7965766622 1.6229510406
H -0.3342037408 -1.7942182043 0.4858059533
H 2.5211826525 0.6423763584 -1.0175746531
H 2.2158175924 0.6908864724 0.7417471064
H 1.1106693831 1.5273284148 -0.3876905319
15
CONF1
C -2.4069999996 0.1171279658 -0.1509625751
C -0.9843416865 0.3987254447 0.3280777264
C -0.0198242045 -0.6523699255 -0.2041121488
O 1.3166199810 -0.5322179343 0.3064552083
C 2.0075543608 0.6086088751 -0.2044337472
H -3.1036922200 0.8742956513 0.2204345076
H -2.4619706227 0.1210596602 -1.2452292136
H -2.7556330519 -0.8608461457 0.1987285756
H -0.9464815875 0.3923597833 1.4244846392
H -0.6774992163 1.3964896299 -0.0048858809
H -0.3565635277 -1.6503608891 0.0992682971
H 0.0062846678 -0.6221339632 -1.3056525237
H 3.0494252466 0.5214113830 0.1145643963
H 1.5981002692 1.5490867317 0.1865440698
H 1.9691226779 0.6324106331 -1.3033565791
