  8
 
 C         -0.5450000000       -0.5060000000       -0.1990000000
 C          0.4800000000        0.4210000000        0.4300000000
 Cl         1.8140000000        0.7910000000       -0.6890000000
 Cl        -1.2730000000        0.2060000000       -1.6600000000
 H         -1.3610000000       -0.6950000000        0.5050000000
 H         -0.1030000000       -1.4680000000       -0.4750000000
 H          0.0290000000        1.3680000000        0.7440000000
 H          0.9230000000       -0.0530000000        1.3110000000
