 xtb: 6.7.1 (edcfbbe)
          04112511573D

 14 13  0     0  0            999 V2000
    1.7669   -0.4409   -0.5424 C   0  0  0  0  0  0  0  0  0  0  0  0
    1.0437   -0.0960    0.6220 O   0  0  0  0  0  0  0  0  0  0  0  0
    0.0502    0.8865    0.4328 C   0  0  0  0  0  0  0  0  0  0  0  0
   -1.1193    0.4766   -0.4713 C   0  0  0  0  0  0  0  0  0  0  0  0
   -1.7159   -0.7726   -0.0257 N   0  0  0  0  0  0  0  0  0  0  0  0
    2.5901   -1.0661   -0.2050 H   0  0  0  0  0  0  0  0  0  0  0  0
    2.1601    0.4554   -1.0350 H   0  0  0  0  0  0  0  0  0  0  0  0
    1.1468   -1.0033   -1.2447 H   0  0  0  0  0  0  0  0  0  0  0  0
   -0.3193    1.0911    1.4410 H   0  0  0  0  0  0  0  0  0  0  0  0
    0.5017    1.8039    0.0244 H   0  0  0  0  0  0  0  0  0  0  0  0
   -1.8235    1.3265   -0.4784 H   0  0  0  0  0  0  0  0  0  0  0  0
   -0.7661    0.3281   -1.4956 H   0  0  0  0  0  0  0  0  0  0  0  0
   -2.5595   -0.9596   -0.5548 H   0  0  0  0  0  0  0  0  0  0  0  0
   -1.9677   -0.7042    0.9543 H   0  0  0  0  0  0  0  0  0  0  0  0
  1  2  1  0  0  0  0
  2  3  1  0  0  0  0
  3  4  1  0  0  0  0
  4  5  1  0  0  0  0
  1  6  1  0  0  0  0
  1  7  1  0  0  0  0
  1  8  1  0  0  0  0
  3  9  1  0  0  0  0
  3 10  1  0  0  0  0
  4 11  1  0  0  0  0
  4 12  1  0  0  0  0
  5 13  1  0  0  0  0
  5 14  1  0  0  0  0
M  END
