13
 xtb: 6.7.1 (edcfbbe)
C           -2.05939899617825       -0.55991837246240       -0.01046129804266
O           -1.28928096453239        0.61284398686315       -0.29550754985808
C           -0.00530022117267        0.60557967485077        0.32919813173941
C            0.95985848719285       -0.36784573778263       -0.33101324819205
O            2.24102182916756       -0.15066394380277        0.28451093694615
H           -1.65384164876058       -1.44971846658405       -0.50811782021403
H           -3.06832953406387       -0.37577104141338       -0.38764567673673
H           -2.10672330866344       -0.74282946624365        1.07221098371158
H            0.38864099757783        1.62283507166980        0.22952834089470
H           -0.10366432496550        0.37308614830742        1.40089345578917
H            1.00447528535924       -0.16447107308673       -1.41043575801036
H            0.63773349414242       -1.40630634384058       -0.18147963386837
H            2.85267119522047       -0.79906932984763       -0.08507962603641
