 xtb: 6.7.1 (edcfbbe)
          04112512193D

 17 16  0     0  0            999 V2000
   -2.1199    1.3402    0.0088 C   0  0  0  0  0  0  0  0  0  0  0  0
   -1.9040   -0.1279    0.3765 C   0  0  0  0  0  0  0  0  0  0  0  0
   -0.5547   -0.6229   -0.0793 C   0  0  0  0  0  0  0  0  0  0  0  0
   -0.3826   -1.5858   -0.8007 O   0  0  0  0  0  0  0  0  0  0  0  0
    0.4332    0.1142    0.4026 O   0  0  0  0  0  0  0  0  0  0  0  0
    1.7838   -0.2200    0.0420 C   0  0  0  0  0  0  0  0  0  0  0  0
    2.6214    1.0448    0.0802 C   0  0  0  0  0  0  0  0  0  0  0  0
   -2.0759    1.4723   -1.0695 H   0  0  0  0  0  0  0  0  0  0  0  0
   -3.0952    1.6646    0.3587 H   0  0  0  0  0  0  0  0  0  0  0  0
   -1.3550    1.9589    0.4690 H   0  0  0  0  0  0  0  0  0  0  0  0
   -2.6642   -0.7614   -0.0801 H   0  0  0  0  0  0  0  0  0  0  0  0
   -1.9487   -0.2417    1.4608 H   0  0  0  0  0  0  0  0  0  0  0  0
    2.1478   -0.9596    0.7621 H   0  0  0  0  0  0  0  0  0  0  0  0
    1.7754   -0.6767   -0.9530 H   0  0  0  0  0  0  0  0  0  0  0  0
    3.6503    0.8000   -0.1620 H   0  0  0  0  0  0  0  0  0  0  0  0
    2.2471    1.7660   -0.6407 H   0  0  0  0  0  0  0  0  0  0  0  0
    2.5810    1.4859    1.0716 H   0  0  0  0  0  0  0  0  0  0  0  0
  1  2  1  0  0  0  0
  2  3  1  0  0  0  0
  3  4  2  0  0  0  0
  3  5  1  0  0  0  0
  5  6  1  0  0  0  0
  6  7  1  0  0  0  0
  1  8  1  0  0  0  0
  1  9  1  0  0  0  0
  1 10  1  0  0  0  0
  2 11  1  0  0  0  0
  2 12  1  0  0  0  0
  6 13  1  0  0  0  0
  6 14  1  0  0  0  0
  7 15  1  0  0  0  0
  7 16  1  0  0  0  0
  7 17  1  0  0  0  0
M  END
