 xtb: 6.7.1 (edcfbbe)
          04112511413D

 14 13  0     0  0            999 V2000
   -1.4456    0.3775   -0.2658 C   0  0  0  0  0  0  0  0  0  0  0  0
   -0.0153    0.3307    0.2953 C   0  0  0  0  0  0  0  0  0  0  0  0
    0.8317   -0.7736   -0.3549 C   0  0  0  0  0  0  0  0  0  0  0  0
    2.1638   -0.7325    0.1074 O   0  0  0  0  0  0  0  0  0  0  0  0
    0.5677    1.5953    0.0627 O   0  0  0  0  0  0  0  0  0  0  0  0
   -2.2315   -0.7246    0.1151 O   0  0  0  0  0  0  0  0  0  0  0  0
   -1.4013    0.4873   -1.3547 H   0  0  0  0  0  0  0  0  0  0  0  0
   -1.9342    1.2631    0.1476 H   0  0  0  0  0  0  0  0  0  0  0  0
   -0.0765    0.1481    1.3819 H   0  0  0  0  0  0  0  0  0  0  0  0
    0.8884   -0.5988   -1.4325 H   0  0  0  0  0  0  0  0  0  0  0  0
    0.3822   -1.7541   -0.1686 H   0  0  0  0  0  0  0  0  0  0  0  0
    2.1971   -1.0311    1.0271 H   0  0  0  0  0  0  0  0  0  0  0  0
    1.5325    1.4846    0.0769 H   0  0  0  0  0  0  0  0  0  0  0  0
   -2.0009   -1.4953   -0.4207 H   0  0  0  0  0  0  0  0  0  0  0  0
  1  2  1  0  0  0  0
  2  3  1  0  0  0  0
  3  4  1  0  0  0  0
  2  5  1  0  0  0  0
  1  6  1  0  0  0  0
  1  7  1  0  0  0  0
  1  8  1  0  0  0  0
  2  9  1  0  0  0  0
  3 10  1  0  0  0  0
  3 11  1  0  0  0  0
  4 12  1  0  0  0  0
  5 13  1  0  0  0  0
  6 14  1  0  0  0  0
M  END
