 xtb: 6.7.1 (edcfbbe)
          04112512353D

 17 16  0     0  0            999 V2000
   -2.6229    0.3243    0.9993 C   0  0  0  0  0  0  0  0  0  0  0  0
   -2.1912    0.3997   -0.4605 C   0  0  0  0  0  0  0  0  0  0  0  0
   -0.8774   -0.3295   -0.7010 C   0  0  0  0  0  0  0  0  0  0  0  0
    0.1691    0.3827   -0.0243 O   0  0  0  0  0  0  0  0  0  0  0  0
    1.3843   -0.1472   -0.0336 C   0  0  0  0  0  0  0  0  0  0  0  0
    1.6455   -1.1953   -0.5905 O   0  0  0  0  0  0  0  0  0  0  0  0
    2.3662    0.6923    0.7265 C   0  0  0  0  0  0  0  0  0  0  0  0
   -3.5493    0.8718    1.1467 H   0  0  0  0  0  0  0  0  0  0  0  0
   -2.7800   -0.7097    1.2972 H   0  0  0  0  0  0  0  0  0  0  0  0
   -1.8578    0.7564    1.6388 H   0  0  0  0  0  0  0  0  0  0  0  0
   -2.0665    1.4421   -0.7552 H   0  0  0  0  0  0  0  0  0  0  0  0
   -2.9493   -0.0529   -1.0996 H   0  0  0  0  0  0  0  0  0  0  0  0
   -0.9075   -1.3543   -0.3157 H   0  0  0  0  0  0  0  0  0  0  0  0
   -0.6301   -0.3734   -1.7669 H   0  0  0  0  0  0  0  0  0  0  0  0
    2.5662    0.2104    1.6811 H   0  0  0  0  0  0  0  0  0  0  0  0
    1.9545    1.6811    0.8964 H   0  0  0  0  0  0  0  0  0  0  0  0
    3.2998    0.7454    0.1743 H   0  0  0  0  0  0  0  0  0  0  0  0
  1  2  1  0  0  0  0
  2  3  1  0  0  0  0
  3  4  1  0  0  0  0
  4  5  1  0  0  0  0
  5  6  2  0  0  0  0
  5  7  1  0  0  0  0
  1  8  1  0  0  0  0
  1  9  1  0  0  0  0
  1 10  1  0  0  0  0
  2 11  1  0  0  0  0
  2 12  1  0  0  0  0
  3 13  1  0  0  0  0
  3 14  1  0  0  0  0
  7 15  1  0  0  0  0
  7 16  1  0  0  0  0
  7 17  1  0  0  0  0
M  END
