 12

C      0.932000    -0.558000     0.200000
O      1.982000     0.385000     0.349000
S      3.445000    -0.141000     0.849000
O      3.956000    -1.114000    -0.096000
O      3.401000    -0.404000     2.273000
C      4.314000     1.385000     0.595000
H      0.027000    -0.047000    -0.139000
H      0.747000    -1.053000     1.157000
H      1.226000    -1.304000    -0.543000
H      5.349000     1.226000     0.885000
H      4.234000     1.637000    -0.459000
H      3.841000     2.139000     1.218000
