  12
 
 C          0.9320000000       -0.5580000000        0.2000000000
 O          1.9820000000        0.3850000000        0.3490000000
 S          3.4450000000       -0.1410000000        0.8490000000
 O          3.9560000000       -1.1140000000       -0.0960000000
 O          3.4010000000       -0.4040000000        2.2730000000
 C          4.3140000000        1.3850000000        0.5950000000
 H          0.0270000000       -0.0470000000       -0.1390000000
 H          0.7470000000       -1.0530000000        1.1570000000
 H          1.2260000000       -1.3040000000       -0.5430000000
 H          5.3490000000        1.2260000000        0.8850000000
 H          4.2340000000        1.6370000000       -0.4590000000
 H          3.8410000000        2.1390000000        1.2180000000
