 xtb: 6.7.1 (edcfbbe)
          04112511523D

 13 12  0     0  0            999 V2000
   -1.5726   -0.8464    0.0841 C   0  0  0  0  0  0  0  0  0  0  0  0
   -1.2524    0.5322    0.1099 O   0  0  0  0  0  0  0  0  0  0  0  0
   -0.0411    0.8611   -0.5364 C   0  0  0  0  0  0  0  0  0  0  0  0
    1.2128    0.4866    0.2628 C   0  0  0  0  0  0  0  0  0  0  0  0
    1.5317   -0.8739    0.0440 O   0  0  0  0  0  0  0  0  0  0  0  0
   -1.6924   -1.1927   -0.9482 H   0  0  0  0  0  0  0  0  0  0  0  0
   -2.5136   -0.9446    0.6196 H   0  0  0  0  0  0  0  0  0  0  0  0
   -0.7994   -1.4454    0.5702 H   0  0  0  0  0  0  0  0  0  0  0  0
    0.0098    0.3769   -1.5205 H   0  0  0  0  0  0  0  0  0  0  0  0
   -0.0752    1.9448   -0.6601 H   0  0  0  0  0  0  0  0  0  0  0  0
    1.0196    0.6735    1.3269 H   0  0  0  0  0  0  0  0  0  0  0  0
    2.0376    1.1267   -0.0719 H   0  0  0  0  0  0  0  0  0  0  0  0
    2.3575   -1.0881    0.4986 H   0  0  0  0  0  0  0  0  0  0  0  0
  1  2  1  0  0  0  0
  2  3  1  0  0  0  0
  3  4  1  0  0  0  0
  4  5  1  0  0  0  0
  1  6  1  0  0  0  0
  1  7  1  0  0  0  0
  1  8  1  0  0  0  0
  3  9  1  0  0  0  0
  3 10  1  0  0  0  0
  4 11  1  0  0  0  0
  4 12  1  0  0  0  0
  5 13  1  0  0  0  0
M  END
