21
 xtb: 6.7.1 (edcfbbe)
C            1.78942483676081        0.86956079341605       -1.06349384911794
C            1.44757182799537       -0.20249148393464       -0.03593729972202
H            2.21034818451267       -0.98645151428865       -0.11314315929531
C            0.08560423997604       -0.89185303147857       -0.21683749021391
C           -1.18001401176182       -0.16773666961452        0.27111368197880
C           -1.46586231388837        1.15320524352541       -0.44746055519193
C           -2.37535172345950       -1.11294729806686        0.11545684003224
O            1.60845372772329        0.30904493722680        1.30923360007220
H            1.67513696784193        0.47448510568522       -2.07800056380880
H            1.15032940936403        1.75037057479876       -0.96682461413900
H            2.82898327031623        1.18810696256463       -0.93659701812532
H           -0.03051078556729       -1.13678014332982       -1.28182537446702
H            0.13458919738221       -1.84890893414055        0.31805128493097
H           -1.06177346851473        0.04396892822925        1.34308841588714
H           -1.43042790722509        1.02190383435948       -1.53593372147283
H           -0.75430774896844        1.93737358952930       -0.17556766378050
H           -2.46608440774010        1.51693751834697       -0.18621621620714
H           -3.28760157208730       -0.66161051632155        0.51995420407939
H           -2.55293278291617       -1.33690971152446       -0.94370592125463
H           -2.20587720787467       -2.06163723747831        0.63603708587971
H            1.00966806000795        1.06260540843121        1.40017667911114
