  24
 
 C         -2.6387496802        0.1541420216       -0.3175018066
 C         -1.2120297652        0.0555290961        0.2140738277
 H         -1.2538162977        0.0632735129        1.3135203843
 C         -0.3518085390        1.2361678567       -0.2606434098
 H         -0.3306473700        1.2402689065       -1.3630335091
 C          1.0845746458        1.0494629225        0.2426325998
 H          1.0871486079        1.0845226799        1.3450009642
 C          1.6135307558       -0.3160476229       -0.1960313631
 H          1.6653792227       -0.3524414739       -1.2956616567
 C          0.6302411250       -1.4035943613        0.2651353869
 H          0.6052397669       -1.4131613320        1.3774290647
 O         -0.6543609251       -1.1626358501       -0.2359347069
 O          1.0689997021       -2.6275192617       -0.2220572987
 O          2.8895443352       -0.4993424700        0.3643034251
 O          1.8662053615        2.1023370083       -0.2682141328
 O         -0.8988831671        2.4336955786        0.2194119231
 O         -3.4672595205       -0.6761096623        0.4602513656
 H         -2.6387315817       -0.1599547577       -1.3688815553
 H         -2.9503774268        1.2031356916       -0.2439486436
 H          0.2950989821       -3.1959442739       -0.3135522863
 H          3.1393261477       -1.4207395193        0.2243857691
 H          2.7898314520        1.8770665599       -0.1026872616
 H         -0.2241731281        3.1151433125        0.1008288868
 H         -4.3615905846       -0.6433596506        0.1046384055
          24
        -43.36524455
 C         -2.4165776053       -1.1145523723       -0.3330254842
 C         -1.0738709139       -0.6109834802        0.2154040669
 H         -1.1309653824       -0.5845005098        1.3150733922
 C         -0.7524024300        0.8055884710       -0.2902134098
 H         -0.7287697161        0.7942051333       -1.3927113171
 C          0.6343549006        1.2288866910        0.2068758307
 H          0.6236654487        1.2862087346        1.3081351713
 C          1.6630197908        0.1790444660       -0.2118787887
 H          1.7182332683        0.1459476411       -1.3134593389
 C          1.2052001088       -1.2035720830        0.2979756017
 H          1.2118706010       -1.1905955284        1.4027456485
 O         -0.0685181544       -1.5151303267       -0.1968399679
 O          2.0907797835       -2.1933613524       -0.1039438488
 O          2.9132325181        0.5258875858        0.3285693977
 O          0.9195965084        2.4959512813       -0.3338963082
 O         -1.7392829161        1.6992762306        0.1597019625
 O         -3.5040328326       -0.4890076582        0.2790920470
 H         -2.5016993120       -2.1834156055       -0.1241519175
 H         -2.4311917918       -0.9693215066       -1.4234266109
 H          1.7674371916       -2.5515172899       -0.9398750723
 H          3.4693987701       -0.2637549075        0.3172623221
 H          1.8530061519        2.6754451118       -0.1690566603
 H         -1.3985343480        2.5914989873        0.0136016543
 H         -3.3419980769        0.4654889573        0.2684451033
