 xtb: 6.7.1 (edcfbbe)
          04112511243D

 20 19  0     0  0            999 V2000
    0.0468   -2.5851    0.0451 C   0  0  0  0  0  0  0  0  0  0  0  0
   -0.0630   -1.0974   -0.2240 C   0  0  0  0  0  0  0  0  0  0  0  0
    0.8522   -0.3723    0.5877 O   0  0  0  0  0  0  0  0  0  0  0  0
    1.8028    0.3705   -0.0046 C   0  0  0  0  0  0  0  0  0  0  0  0
    2.0089    0.3490   -1.1952 O   0  0  0  0  0  0  0  0  0  0  0  0
    2.5507    1.1847    0.9987 C   0  0  0  0  0  0  0  0  0  0  0  0
   -1.3733   -0.6872    0.1283 O   0  0  0  0  0  0  0  0  0  0  0  0
   -1.7290    0.5891   -0.0970 C   0  0  0  0  0  0  0  0  0  0  0  0
   -0.9828    1.3987   -0.5998 O   0  0  0  0  0  0  0  0  0  0  0  0
   -3.1244    0.8493    0.3640 C   0  0  0  0  0  0  0  0  0  0  0  0
    1.0347   -2.9302   -0.2420 H   0  0  0  0  0  0  0  0  0  0  0  0
   -0.7083   -3.1061   -0.5332 H   0  0  0  0  0  0  0  0  0  0  0  0
   -0.1140   -2.7654    1.1036 H   0  0  0  0  0  0  0  0  0  0  0  0
    0.1351   -0.8381   -1.2759 H   0  0  0  0  0  0  0  0  0  0  0  0
    2.5383    0.6892    1.9635 H   0  0  0  0  0  0  0  0  0  0  0  0
    3.5633    1.3569    0.6487 H   0  0  0  0  0  0  0  0  0  0  0  0
    2.0446    2.1444    1.0882 H   0  0  0  0  0  0  0  0  0  0  0  0
   -3.5156    1.7299   -0.1347 H   0  0  0  0  0  0  0  0  0  0  0  0
   -3.7419   -0.0229    0.1757 H   0  0  0  0  0  0  0  0  0  0  0  0
   -3.1015    1.0282    1.4371 H   0  0  0  0  0  0  0  0  0  0  0  0
  1  2  1  0  0  0  0
  2  3  1  0  0  0  0
  3  4  1  0  0  0  0
  4  5  2  0  0  0  0
  4  6  1  0  0  0  0
  2  7  1  0  0  0  0
  7  8  1  0  0  0  0
  8  9  2  0  0  0  0
  8 10  1  0  0  0  0
  1 11  1  0  0  0  0
  1 12  1  0  0  0  0
  1 13  1  0  0  0  0
  2 14  1  0  0  0  0
  6 15  1  0  0  0  0
  6 16  1  0  0  0  0
  6 17  1  0  0  0  0
 10 18  1  0  0  0  0
 10 19  1  0  0  0  0
 10 20  1  0  0  0  0
M  END
