14
 xtb: 6.7.1 (edcfbbe)
C           -3.40804091300014       -0.67025836828807       -0.53713512193725
C           -2.78622773387095        0.09396436276465        0.63009005283730
C           -1.28211898519592       -0.16065233658806        0.81337668825876
C           -0.49459148073380        0.31792132007813       -0.38514554662039
Br           1.46904787531758        0.08953035500240       -0.09688439392522
H           -3.01894731382444       -0.33006318945910       -1.50215122946701
H           -3.20592339664681       -1.74431759244504       -0.45306374275686
H           -4.49393557878215       -0.53361790948923       -0.55547988676468
H           -3.28588378117997       -0.19651021489198        1.56149096462379
H           -2.95845277934947        1.17027945645113        0.50508877368102
H           -0.93497912358646        0.36431711444289        1.70950731255940
H           -1.10578690325214       -1.23123996015065        0.96918132548282
H           -0.62646956271204        1.38444954859313       -0.57238042335809
H           -0.70102940994068       -0.24867941247271       -1.29224211007214
