  21
 
 C         -3.6892697503       -0.2624206153       -0.0020021042
 C         -2.3833340092        0.5206484007        0.0001058794
 C         -1.1745777787       -0.4077675682       -0.0005146714
 O         -0.0000492866        0.3673590735       -0.0000867083
 C          1.1744012097       -0.4078255623        0.0004888360
 C          2.3832051222        0.5205355526       -0.0002233039
 C          3.6891026904       -0.2625941692        0.0022756506
 H         -4.5381745484        0.4165531765       -0.0000685789
 H         -3.7552201522       -0.8936025397       -0.8857344248
 H         -3.7551539428       -0.8986673540        0.8781062545
 H         -2.3281822693        1.1603740598        0.8819643247
 H         -2.3269180178        1.1630501999       -0.8797242718
 H         -1.1963258451       -1.0596174302        0.8889913609
 H         -1.1963578987       -1.0585414582       -0.8908047000
 H          1.1961660867       -1.0598159522       -0.8889093556
 H          1.1961537623       -1.0584789879        0.8908800278
 H          2.3282028445        1.1600123103       -0.8822835345
 H          2.3266891728        1.1631803763        0.8794165221
 H          4.5380525774        0.4163098833        0.0004020299
 H          3.7548267394       -0.8936528866        0.8861407010
 H          3.7551363191       -0.8990140942       -0.8776860698
          21
        -24.04943149
 C         -3.4323440440       -0.7022413375        0.1180743942
 C         -2.3659368132        0.3325748294       -0.2137989806
 C         -0.9710321528       -0.1526993813        0.1666934263
 O         -0.0407619822        0.8508747678       -0.1776498554
 C          1.2593296541        0.6570999719        0.3261804623
 C          2.0379670434       -0.4727058696       -0.3552885975
 C          3.4919723867       -0.4879803802        0.0971360579
 H         -3.4393879985       -0.9168891274        1.1846416095
 H         -4.4155804146       -0.3355198472       -0.1651906631
 H         -3.2444796135       -1.6309534907       -0.4164921054
 H         -2.5662204789        1.2640460774        0.3175137555
 H         -2.3729392562        0.5521202647       -1.2821697531
 H         -0.9214871933       -0.3539347152        1.2490708891
 H         -0.7482350936       -1.0905994929       -0.3637927100
 H          1.2208349174        0.4757078871        1.4124785267
 H          1.7702079510        1.6082492126        0.1507356656
 H          1.5749099517       -1.4330915263       -0.1197025517
 H          1.9840695658       -0.3272007827       -1.4358994732
 H          3.9805380888        0.4507246346       -0.1540092916
 H          3.5551483845       -0.6289947806        1.1741512724
 H          4.0318630284       -1.2976927670       -0.3877266965
