 21

C     -1.199000    -0.887000     2.881000
C      0.110000    -0.653000     3.614000
C      1.275000    -1.349000     2.927000
O      2.463000    -1.090000     3.662000
C      3.592000    -1.717000     3.068000
C      4.824000    -1.400000     3.901000
C      6.075000    -2.039000     3.324000
H     -2.027000    -0.380000     3.387000
H     -1.137000    -0.499000     1.860000
H     -1.432000    -1.955000     2.826000
H      0.026000    -1.008000     4.648000
H      0.312000     0.423000     3.681000
H      1.117000    -2.432000     2.891000
H      1.408000    -0.975000     1.907000
H      3.702000    -1.339000     2.047000
H      3.411000    -2.796000     3.031000
H      4.957000    -0.313000     3.963000
H      4.671000    -1.744000     4.931000
H      6.953000    -1.803000     3.933000
H      5.965000    -3.128000     3.294000
H      6.260000    -1.689000     2.304000
