  21
 
 C         -1.1990000000       -0.8870000000        2.8810000000
 C          0.1100000000       -0.6530000000        3.6140000000
 C          1.2750000000       -1.3490000000        2.9270000000
 O          2.4630000000       -1.0900000000        3.6620000000
 C          3.5920000000       -1.7170000000        3.0680000000
 C          4.8240000000       -1.4000000000        3.9010000000
 C          6.0750000000       -2.0390000000        3.3240000000
 H         -2.0270000000       -0.3800000000        3.3870000000
 H         -1.1370000000       -0.4990000000        1.8600000000
 H         -1.4320000000       -1.9550000000        2.8260000000
 H          0.0260000000       -1.0080000000        4.6480000000
 H          0.3120000000        0.4230000000        3.6810000000
 H          1.1170000000       -2.4320000000        2.8910000000
 H          1.4080000000       -0.9750000000        1.9070000000
 H          3.7020000000       -1.3390000000        2.0470000000
 H          3.4110000000       -2.7960000000        3.0310000000
 H          4.9570000000       -0.3130000000        3.9630000000
 H          4.6710000000       -1.7440000000        4.9310000000
 H          6.9530000000       -1.8030000000        3.9330000000
 H          5.9650000000       -3.1280000000        3.2940000000
 H          6.2600000000       -1.6890000000        2.3040000000
