 31

C      0.899000     0.318000     0.137000
O      1.146000    -1.076000     0.065000
P      2.071000    -1.691000    -1.135000
S      1.329000    -1.317000    -2.912000
O      1.940000    -3.271000    -0.734000
C      2.595000    -4.264000    -1.507000
S      4.077000    -1.111000    -0.726000
C      4.461000    -1.827000     0.883000
N      5.800000    -1.504000     1.275000
C      6.836000    -2.367000     0.910000
O      6.692000    -3.402000     0.267000
C      8.174000    -1.970000     1.348000
C      9.303000    -2.740000     1.053000
C     10.555000    -2.316000     1.493000
C     10.672000    -1.134000     2.221000
C      9.535000    -0.375000     2.508000
C      8.271000    -0.789000     2.071000
N      7.158000     0.001000     2.378000
N      6.021000    -0.353000     1.998000
H      0.265000     0.532000     1.001000
H      0.406000     0.649000    -0.781000
H      1.850000     0.843000     0.247000
H      2.388000    -5.248000    -1.083000
H      3.671000    -4.072000    -1.507000
H      2.217000    -4.221000    -2.530000
H      4.371000    -2.916000     0.845000
H      3.780000    -1.437000     1.643000
H      9.226000    -3.663000     0.487000
H     11.439000    -2.906000     1.270000
H     11.647000    -0.801000     2.565000
H      9.643000     0.546000     3.077000
