26
 xtb: 6.7.1 (edcfbbe)
C            0.52876394413408        1.91802096523435        0.35858450016664
C            1.88218036132346        2.18143135238999        0.42379544959181
C            2.81917738483727        1.16885027904703        0.19543672863714
C            2.36484193740637       -0.13570609796346       -0.10650029479462
C            0.98316535579181       -0.37443263860777       -0.16490208606506
C            0.05066989952934        0.62898280054006        0.06218117004965
C           -1.40052920620473        0.38025603740299       -0.03563883504935
C           -2.25011781200660        1.28866330522909       -0.68300842337559
C           -3.62058973703517        1.08150740292887       -0.77956887573202
C           -4.14612096745316       -0.06542486197206       -0.21071462360829
C           -3.36881663872532       -1.00123856114828        0.44855285086829
C           -2.01024230208276       -0.74778958907229        0.51734375219664
F           -1.25034914719909       -1.64345112098474        1.19400307281808
F           -5.47984700559613       -0.28880756253982       -0.29644162024064
C            3.24193928042294       -1.28539610670675       -0.38283967824478
O            2.85607214870072       -2.41198220214597       -0.64449051275813
O            4.56612411447422       -0.98406974273135       -0.32105594457494
O            4.12358556865962        1.53332399135235        0.28579077733651
H           -0.17613703375566        2.72012354148262        0.55367242663465
H            2.24388302598081        3.17641317507738        0.66037855495972
H            0.65679724439256       -1.37539483405312       -0.42092337564629
H           -1.81731199317595        2.17360652520615       -1.13767321343705
H           -4.26588277584002        1.78624554219667       -1.29095506914333
H           -3.80001084403840       -1.88590664780343        0.90215371908478
H            5.08618597835800       -1.78220971252677       -0.51763554016363
H            4.68580949220897        0.75974521369605        0.09956319433366
