18
 xtb: 6.7.1 (edcfbbe)
C           -1.50316144045426        1.24900206786015       -0.48550275414381
C           -1.23162141019560        0.36774684786219        0.73374367118562
C           -0.08111597016283       -0.64751277643672        0.61221466760493
H           -0.08052244595076       -1.21820522122576        1.55276127930420
C           -0.28787970828003       -1.64568741235784       -0.52817983220321
C            1.31243458573644       -0.01537039370416        0.55732576093512
O            1.64607225063306        0.61401560075657       -0.69673696729319
H           -0.66305978005777        1.91357156735170       -0.70481284325038
H           -1.70221473908498        0.65169003634817       -1.38124177938179
H           -2.38394633283371        1.87546771089366       -0.30811566385699
H           -2.14544339163231       -0.19384566946150        0.96847169494702
H           -1.03303499296816        1.00833746604899        1.60283218023168
H           -0.26952082916916       -1.15850493946609       -1.50879156525267
H           -1.25599654710776       -2.14831714034975       -0.43143891886595
H            0.49365575481591       -2.41387321920339       -0.52136178834088
H            2.06576977470583       -0.78284110271501        0.78836894142373
H            1.39407114281669        0.77321912022959        1.31332028475804
H            1.69880771827791       -0.08168740792762       -1.36409753768822
