  8
 
 C          0.8658641392       -0.0513722068       -0.4283447318
 C         -0.6742121811       -0.0118518028       -0.2965026685
 F         -1.2238967615       -0.0962994044       -1.5217226226
 Cl        -1.1617611587        1.5191282328        0.4436310809
 Cl        -1.2154654388       -1.3923405662        0.6689861102
 F          1.2510018661       -1.1852732192       -1.0242564084
 F          1.2900158453        0.9513087689       -1.2055210309
 Cl         1.6219458564        0.0697388325        1.1668997081
           8
        -32.10543237
 C          0.6965666775        0.5531359153        0.2081494143
 C         -0.5724099443       -0.1557187983       -0.3138050340
 F         -0.4882723577       -0.2870974680       -1.6491153048
 Cl        -2.0013377399        0.8226569103        0.0738683186
 Cl        -0.6889757559       -1.7616243668        0.4172621212
 F          0.7835201505        1.7883781987       -0.2972649015
 F          0.6379011247        0.6841061145        1.5368210373
 Cl         2.1481990648       -0.3667677543       -0.2358629430
