 8

C      0.726000    -0.022000     0.280000
C     -0.658000    -0.055000    -0.358000
F     -0.572000    -0.822000    -1.483000
Cl    -1.202000     1.570000    -0.848000
Cl    -1.867000    -0.802000     0.718000
F      1.105000    -1.290000     0.593000
F      1.630000     0.424000    -0.634000
Cl     0.836000     0.988000     1.737000
