 xtb: 6.7.1 (edcfbbe)
          04112512083D

 17 16  0     0  0            999 V2000
   -2.4743    0.6134   -0.8357 C   0  0  0  0  0  0  0  0  0  0  0  0
   -2.1641    0.2135    0.6020 C   0  0  0  0  0  0  0  0  0  0  0  0
   -0.8508   -0.5497    0.7109 C   0  0  0  0  0  0  0  0  0  0  0  0
    0.2312    0.3407    0.3990 O   0  0  0  0  0  0  0  0  0  0  0  0
    1.3473   -0.1653   -0.1066 C   0  0  0  0  0  0  0  0  0  0  0  0
    1.5121   -1.3518   -0.3106 O   0  0  0  0  0  0  0  0  0  0  0  0
    2.3573    0.9035   -0.3994 C   0  0  0  0  0  0  0  0  0  0  0  0
   -3.4127    1.1586   -0.8809 H   0  0  0  0  0  0  0  0  0  0  0  0
   -1.6850    1.2497   -1.2282 H   0  0  0  0  0  0  0  0  0  0  0  0
   -2.5542   -0.2680   -1.4680 H   0  0  0  0  0  0  0  0  0  0  0  0
   -2.9563   -0.4259    0.9912 H   0  0  0  0  0  0  0  0  0  0  0  0
   -2.0986    1.1046    1.2269 H   0  0  0  0  0  0  0  0  0  0  0  0
   -0.6947   -0.9221    1.7283 H   0  0  0  0  0  0  0  0  0  0  0  0
   -0.8157   -1.3977    0.0188 H   0  0  0  0  0  0  0  0  0  0  0  0
    3.3237    0.6019   -0.0058 H   0  0  0  0  0  0  0  0  0  0  0  0
    2.0370    1.8445    0.0340 H   0  0  0  0  0  0  0  0  0  0  0  0
    2.4523    1.0050   -1.4781 H   0  0  0  0  0  0  0  0  0  0  0  0
  1  2  1  0  0  0  0
  2  3  1  0  0  0  0
  3  4  1  0  0  0  0
  4  5  1  0  0  0  0
  5  6  2  0  0  0  0
  5  7  1  0  0  0  0
  1  8  1  0  0  0  0
  1  9  1  0  0  0  0
  1 10  1  0  0  0  0
  2 11  1  0  0  0  0
  2 12  1  0  0  0  0
  3 13  1  0  0  0  0
  3 14  1  0  0  0  0
  7 15  1  0  0  0  0
  7 16  1  0  0  0  0
  7 17  1  0  0  0  0
M  END
