15
 xtb: 6.7.1 (edcfbbe)
C            2.62715745032296       -0.82772874457719       -0.03307535549821
C            1.98951646290644        0.53929720652691       -0.27498794165817
C            0.56767674035693        0.67184391016216        0.28445693939926
C           -0.41936060971938       -0.26945996026688       -0.39210304444781
S           -2.16342859136212       -0.03807515293496        0.18218249478414
H            2.61395077810005       -1.08104264401160        1.03341366882773
H            3.67003422781855       -0.83674333773382       -0.36617679374233
H            2.10387722457336       -1.62335341979163       -0.57275680420674
H            1.97551488602780        0.75657248157208       -1.35087361239830
H            2.61109927127055        1.31356947345738        0.19039022180777
H            0.22084984131298        1.70323666414555        0.15488673847602
H            0.57994106251609        0.46971549768606        1.36353160288446
H           -0.45437461383800       -0.08443639938176       -1.47131126741508
H           -0.15193628311794       -1.31840712879161       -0.24345061179168
H           -1.94571677348938       -0.38799796916090        1.46365394377497
