 17

C      1.930000    -1.014000    -1.603000
C      1.885000    -1.036000    -0.112000
C      2.921000    -1.631000     0.608000
C      2.878000    -1.652000     2.002000
C      1.800000    -1.079000     2.676000
C      0.764000    -0.484000     1.955000
C      0.807000    -0.463000     0.561000
C      1.755000    -1.101000     4.129000
O      0.830000    -0.612000     4.783000
H      2.438000    -0.108000    -1.949000
H      2.463000    -1.888000    -1.992000
H      0.920000    -1.036000    -2.025000
H      3.765000    -2.080000     0.092000
H      3.691000    -2.118000     2.554000
H     -0.081000    -0.035000     2.470000
H     -0.005000     0.002000     0.008000
H      2.604000    -1.586000     4.659000
