 xtb: 6.7.1 (edcfbbe)
          04112512153D

 21 20  0     0  0            999 V2000
    1.9379   -1.0202    0.2967 C   0  0  0  0  0  0  0  0  0  0  0  0
    1.2474    0.2079    0.8800 C   0  0  0  0  0  0  0  0  0  0  0  0
    0.1702    0.8477   -0.0107 C   0  0  0  0  0  0  0  0  0  0  0  0
   -0.0473    1.8349    0.4382 H   0  0  0  0  0  0  0  0  0  0  0  0
   -1.1913    0.1207   -0.1165 C   0  0  0  0  0  0  0  0  0  0  0  0
   -1.1160   -1.2328   -0.8209 C   0  0  0  0  0  0  0  0  0  0  0  0
   -1.8682   -0.0117    1.2452 C   0  0  0  0  0  0  0  0  0  0  0  0
    0.7421    1.0503   -1.2929 O   0  0  0  0  0  0  0  0  0  0  0  0
    1.2936   -1.8924    0.3131 H   0  0  0  0  0  0  0  0  0  0  0  0
    2.8296   -1.2445    0.8774 H   0  0  0  0  0  0  0  0  0  0  0  0
    2.2334   -0.8215   -0.7298 H   0  0  0  0  0  0  0  0  0  0  0  0
    0.8086   -0.0257    1.8493 H   0  0  0  0  0  0  0  0  0  0  0  0
    2.0083    0.9763    1.0362 H   0  0  0  0  0  0  0  0  0  0  0  0
   -1.8176    0.7784   -0.7352 H   0  0  0  0  0  0  0  0  0  0  0  0
   -0.4254   -1.1852   -1.6589 H   0  0  0  0  0  0  0  0  0  0  0  0
   -0.7846   -2.0086   -0.1371 H   0  0  0  0  0  0  0  0  0  0  0  0
   -2.0987   -1.5118   -1.1944 H   0  0  0  0  0  0  0  0  0  0  0  0
   -1.3346   -0.7171    1.8765 H   0  0  0  0  0  0  0  0  0  0  0  0
   -2.8848   -0.3748    1.1164 H   0  0  0  0  0  0  0  0  0  0  0  0
   -1.9060    0.9496    1.7529 H   0  0  0  0  0  0  0  0  0  0  0  0
    0.1184    1.5409   -1.8437 H   0  0  0  0  0  0  0  0  0  0  0  0
  1  2  1  0  0  0  0
  2  3  1  0  0  0  0
  3  4  1  0  0  0  0
  3  5  1  0  0  0  0
  5  6  1  0  0  0  0
  5  7  1  0  0  0  0
  3  8  1  0  0  0  0
  1  9  1  0  0  0  0
  1 10  1  0  0  0  0
  1 11  1  0  0  0  0
  2 12  1  0  0  0  0
  2 13  1  0  0  0  0
  5 14  1  0  0  0  0
  6 15  1  0  0  0  0
  6 16  1  0  0  0  0
  6 17  1  0  0  0  0
  7 18  1  0  0  0  0
  7 19  1  0  0  0  0
  7 20  1  0  0  0  0
  8 21  1  0  0  0  0
M  END
