  32
 
 C         -4.7483408694        1.0853742660       -0.8245372903
 C         -4.0291079759        0.7515681632        0.4802633666
 N         -2.7418188257        1.3933573272        0.5654684602
 C         -1.5774021537        0.7618463535        0.3565707079
 N         -0.4794918814        1.5211633741        0.3193463112
 C          0.6623898543        0.8545362243        0.1539708471
 N          0.7601033350       -0.4760090986        0.0188613231
 C         -0.3958848533       -1.1108084932        0.0651033515
 N         -1.5875277868       -0.5705596402        0.2280381574
 S         -0.3718256965       -2.8476105973       -0.1154189261
 C          1.4156907107       -3.1230463769       -0.2907070837
 N          1.7903144594        1.5788497139        0.1395246393
 C          3.1034259294        1.0471326263       -0.1428979255
 C          4.1164425358        1.6474894842        0.8276585489
 C          3.4951242024        1.3252249874       -1.5954258682
 H         -5.7103197421        0.5817115854       -0.8578736948
 H         -4.9140284423        2.1580915011       -0.9084079190
 H         -4.1533120291        0.7571148456       -1.6734526651
 H         -3.8464349796       -0.3213204811        0.5483421631
 H         -4.6371838530        1.0705225728        1.3331265479
 H         -2.6981387734        2.4002905899        0.5692226261
 H          1.5522005768       -4.1887057173       -0.4377020844
 H          1.9149016433       -2.7916118384        0.6133095642
 H          1.7777122230       -2.5642879639       -1.1466050411
 H          1.6699667396        2.5790165272        0.1755101802
 H          3.0290590014       -0.0330538896        0.0120709167
 H          5.0975381228        1.2110065663        0.6626203943
 H          4.1877342034        2.7237036661        0.6826880523
 H          3.8169912510        1.4543741961        1.8545821015
 H          4.4654932423        0.8877756751       -1.8141756940
 H          3.5472656065        2.3971716603       -1.7759478646
 H          2.7585089279        0.8947140482       -2.2691196091
          32
        -45.87365082
 C         -4.6322907764        1.2224588299       -0.9507517075
 C         -3.9435472148        0.9611093992        0.3862513081
 N         -2.6253164454        1.5412930554        0.4372199352
 C         -1.4961287872        0.8404888901        0.2568811898
 N         -0.3603725461        1.5379182393        0.1762083339
 C          0.7441037907        0.8041499475        0.0425623567
 N          0.7715595867       -0.5352178860       -0.0161733819
 C         -0.4157548151       -1.1049871039        0.0682706376
 N         -1.5764898952       -0.4947901314        0.2039180236
 S         -0.4827447509       -2.8486313255       -0.0045898534
 C          1.2855133255       -3.2262370651       -0.1826742869
 N          1.9035103994        1.4688957173       -0.0566495332
 C          3.2074032411        0.8514614814       -0.1262444851
 C          3.9603139902        1.0472859290        1.1902729341
 C          3.9903001493        1.4320022258       -1.3017210263
 H         -4.7375141560        2.2912928645       -1.1266414450
 H         -4.0485681324        0.7916104521       -1.7600588896
 H         -5.6202132012        0.7704591109       -0.9546506080
 H         -3.8175487334       -0.1110747210        0.5416759805
 H         -4.5406424237        1.3785841881        1.2035177355
 H         -2.5311287256        2.5431792352        0.3778550574
 H          1.8197652488       -2.8277992331        0.6732009737
 H          1.6532919687       -2.7765745743       -1.0988369686
 H          1.3691785471       -4.3069498938       -0.2223078115
 H          1.8463592975        2.4707025455        0.0386879997
 H          3.0244604820       -0.2144120862       -0.2886694405
 H          4.9206721361        0.5403784853        1.1533464147
 H          4.1326802440        2.1058945444        1.3747802752
 H          3.3827286283        0.6401863099        2.0163893216
 H          3.4375849191        1.2959561338       -2.2277111044
 H          4.9521947344        0.9352864076       -1.3936961872
 H          4.1627028098        2.4961670692       -1.1529367215
