 32

C     -1.539000    -1.558000    -4.854000
C     -0.328000    -2.138000    -4.206000
N     -0.152000    -1.618000    -2.871000
C      0.911000    -1.989000    -2.019000
N      0.940000    -1.417000    -0.805000
C      1.976000    -1.818000    -0.051000
N      2.930000    -2.696000    -0.402000
C      2.773000    -3.185000    -1.643000
N      1.792000    -2.879000    -2.507000
S      3.991000    -4.359000    -2.200000
C      5.423000    -3.775000    -1.268000
N      2.072000    -1.270000     1.218000
C      3.153000    -1.602000     2.178000
C      2.616000    -1.473000     3.596000
C      4.332000    -0.670000     1.935000
H     -1.669000    -1.955000    -5.866000
H     -2.437000    -1.771000    -4.264000
H     -1.434000    -0.469000    -4.930000
H      0.569000    -1.893000    -4.782000
H     -0.413000    -3.226000    -4.131000
H     -0.829000    -0.946000    -2.527000
H      6.290000    -4.399000    -1.493000
H      5.213000    -3.828000    -0.197000
H      5.644000    -2.741000    -1.540000
H      1.364000    -0.605000     1.507000
H      3.462000    -2.636000     1.995000
H      3.393000    -1.712000     4.330000
H      2.258000    -0.457000     3.797000
H      1.775000    -2.156000     3.757000
H      5.149000    -0.889000     2.630000
H      4.038000     0.375000     2.076000
H      4.726000    -0.780000     0.918000
