 xtb: 6.7.1 (edcfbbe)
          04112512473D

 23 22  0     0  0            999 V2000
    2.1367    1.2822   -0.7024 C   0  0  0  0  0  0  0  0  0  0  0  0
    1.5999    0.3204    0.3522 C   0  0  0  0  0  0  0  0  0  0  0  0
    0.3965   -0.5080   -0.1224 C   0  0  0  0  0  0  0  0  0  0  0  0
    0.6312   -0.8788   -1.1277 H   0  0  0  0  0  0  0  0  0  0  0  0
    0.2198   -1.7205    0.7924 C   0  0  0  0  0  0  0  0  0  0  0  0
   -0.8879    0.3391   -0.2438 C   0  0  0  0  0  0  0  0  0  0  0  0
   -1.9123   -0.3392   -1.1542 C   0  0  0  0  0  0  0  0  0  0  0  0
   -1.5312    0.6638    1.1035 C   0  0  0  0  0  0  0  0  0  0  0  0
    1.3985    2.0353   -0.9661 H   0  0  0  0  0  0  0  0  0  0  0  0
    3.0201    1.7938   -0.3276 H   0  0  0  0  0  0  0  0  0  0  0  0
    2.4110    0.7411   -1.6054 H   0  0  0  0  0  0  0  0  0  0  0  0
    1.3307    0.8795    1.2501 H   0  0  0  0  0  0  0  0  0  0  0  0
    2.4016   -0.3689    0.6274 H   0  0  0  0  0  0  0  0  0  0  0  0
    1.0845   -2.3755    0.7106 H   0  0  0  0  0  0  0  0  0  0  0  0
    0.1275   -1.4109    1.8301 H   0  0  0  0  0  0  0  0  0  0  0  0
   -0.6621   -2.2930    0.5185 H   0  0  0  0  0  0  0  0  0  0  0  0
   -0.6088    1.2858   -0.7184 H   0  0  0  0  0  0  0  0  0  0  0  0
   -2.2474   -1.2822   -0.7294 H   0  0  0  0  0  0  0  0  0  0  0  0
   -1.4850   -0.5361   -2.1349 H   0  0  0  0  0  0  0  0  0  0  0  0
   -2.7823    0.3009   -1.2824 H   0  0  0  0  0  0  0  0  0  0  0  0
   -2.3409    1.3766    0.9623 H   0  0  0  0  0  0  0  0  0  0  0  0
   -0.8109    1.1039    1.7882 H   0  0  0  0  0  0  0  0  0  0  0  0
   -1.9452   -0.2306    1.5611 H   0  0  0  0  0  0  0  0  0  0  0  0
  1  2  1  0  0  0  0
  2  3  1  0  0  0  0
  3  4  1  0  0  0  0
  3  5  1  0  0  0  0
  3  6  1  0  0  0  0
  6  7  1  0  0  0  0
  6  8  1  0  0  0  0
  1  9  1  0  0  0  0
  1 10  1  0  0  0  0
  1 11  1  0  0  0  0
  2 12  1  0  0  0  0
  2 13  1  0  0  0  0
  5 14  1  0  0  0  0
  5 15  1  0  0  0  0
  5 16  1  0  0  0  0
  6 17  1  0  0  0  0
  7 18  1  0  0  0  0
  7 19  1  0  0  0  0
  7 20  1  0  0  0  0
  8 21  1  0  0  0  0
  8 22  1  0  0  0  0
  8 23  1  0  0  0  0
M  END
