 xtb: 6.7.1 (edcfbbe)
          04112511443D

 25 25  0     0  0            999 V2000
    2.1419   -0.8190    1.5543 C   0  0  0  0  0  0  0  0  0  0  0  0
    2.4492   -0.1049    0.2702 C   0  0  0  0  0  0  0  0  0  0  0  0
    3.6944    0.1121   -0.1247 C   0  0  0  0  0  0  0  0  0  0  0  0
    1.2727    0.3670   -0.5505 C   0  0  0  0  0  0  0  0  0  0  0  0
    1.6635    0.8253   -1.4630 H   0  0  0  0  0  0  0  0  0  0  0  0
    0.3762   -0.8102   -0.9600 C   0  0  0  0  0  0  0  0  0  0  0  0
   -1.0407   -0.3400   -1.2917 C   0  0  0  0  0  0  0  0  0  0  0  0
   -1.6225    0.2541   -0.0445 C   0  0  0  0  0  0  0  0  0  0  0  0
   -0.8503    1.0670    0.6969 C   0  0  0  0  0  0  0  0  0  0  0  0
    0.5023    1.4632    0.2388 C   0  0  0  0  0  0  0  0  0  0  0  0
   -2.9588   -0.1032    0.3758 C   0  0  0  0  0  0  0  0  0  0  0  0
   -3.7163   -0.8512   -0.2182 O   0  0  0  0  0  0  0  0  0  0  0  0
    2.0784   -1.8927    1.3794 H   0  0  0  0  0  0  0  0  0  0  0  0
    2.9298   -0.6504    2.2839 H   0  0  0  0  0  0  0  0  0  0  0  0
    1.1934   -0.4892    1.9708 H   0  0  0  0  0  0  0  0  0  0  0  0
    3.9226    0.6118   -1.0506 H   0  0  0  0  0  0  0  0  0  0  0  0
    4.5393   -0.2098    0.4606 H   0  0  0  0  0  0  0  0  0  0  0  0
    0.8186   -1.3150   -1.8190 H   0  0  0  0  0  0  0  0  0  0  0  0
    0.3074   -1.5322   -0.1460 H   0  0  0  0  0  0  0  0  0  0  0  0
   -1.0101    0.4078   -2.0874 H   0  0  0  0  0  0  0  0  0  0  0  0
   -1.6644   -1.1703   -1.6260 H   0  0  0  0  0  0  0  0  0  0  0  0
   -1.2181    1.4841    1.6237 H   0  0  0  0  0  0  0  0  0  0  0  0
    0.3664    2.3221   -0.4250 H   0  0  0  0  0  0  0  0  0  0  0  0
    1.1055    1.8099    1.0784 H   0  0  0  0  0  0  0  0  0  0  0  0
   -3.2845    0.3681    1.3230 H   0  0  0  0  0  0  0  0  0  0  0  0
  1  2  1  0  0  0  0
  2  3  2  0  0  0  0
  2  4  1  0  0  0  0
  4  5  1  0  0  0  0
  4  6  1  0  0  0  0
  6  7  1  0  0  0  0
  7  8  1  0  0  0  0
  8  9  2  0  0  0  0
  4 10  1  0  0  0  0
  9 10  1  0  0  0  0
  8 11  1  0  0  0  0
 11 12  2  0  0  0  0
  1 13  1  0  0  0  0
  1 14  1  0  0  0  0
  1 15  1  0  0  0  0
  3 16  1  0  0  0  0
  3 17  1  0  0  0  0
  6 18  1  0  0  0  0
  6 19  1  0  0  0  0
  7 20  1  0  0  0  0
  7 21  1  0  0  0  0
  9 22  1  0  0  0  0
 10 23  1  0  0  0  0
 10 24  1  0  0  0  0
 11 25  1  0  0  0  0
M  END
