21
 xtb: 6.7.1 (edcfbbe)
C           -2.60051806696110       -0.38743012379934       -0.66186121228144
C           -1.74140117437151        0.09789773262333        0.50576751750329
C           -0.48689408307708        0.87879936972462        0.07532251246890
C            0.82444160849348        0.07735142511677        0.00542644346283
C            1.95529022086127        0.98552414905211       -0.45927287323699
C            0.72233244037609       -1.15334168132873       -0.89067649854223
O            1.20667328902645       -0.34610027962555        1.34691392816847
H           -3.46983507398337       -0.95006800264778       -0.30473290056307
H           -2.04008529387817       -1.03588703244417       -1.34203606531986
H           -2.97055532813731        0.46325812821489       -1.24529188876868
H           -2.35775771743430        0.74142636875791        1.14342107724613
H           -1.46287351268156       -0.75754267345670        1.13597855039525
H           -0.66285662352958        1.33098575468444       -0.90951999854922
H           -0.30622663407549        1.70728700950233        0.77048713809602
H            2.90714959911278        0.44471278970153       -0.45608210215973
H            2.04559244035855        1.85684012603590        0.19777621535371
H            1.76250381745024        1.33866003427275       -1.47620836622211
H           -0.01928805976173       -1.86138600419296       -0.50602357102068
H            1.69038787846351       -1.66275267238047       -0.93756578377788
H            0.43077314918489       -0.86957486764233       -1.90689470045467
H            0.55784383609354       -0.99798988093380        1.64255634292908
