21
 xtb: 6.7.1 (edcfbbe)
C            1.86780410107377       -1.06102714426726        0.40625733020483
C            1.29721274711527        0.29502232351242        0.82213319122514
C            0.17395713250846        0.87849781286908       -0.03333584296906
H           -0.06061628312734        1.86397957163056        0.40229771022812
C           -1.16853290789019        0.12454674101875       -0.10300073300837
C           -1.14660298626940       -1.20653608301840       -0.85836782952192
C           -1.76798113217906       -0.04867151648154        1.29221053661302
O            0.71837553902606        1.08707778704739       -1.35757534478383
H            1.18639160419341       -1.88329270741650        0.63522636827585
H            2.80116262212389       -1.25184124988601        0.94586390142876
H            2.09368768846685       -1.09495486017318       -0.66391972242048
H            0.94478027837574        0.24842621641324        1.85859327159514
H            2.10537084392871        1.03728630005768        0.81247635587091
H           -1.83179032452858        0.80094918529396       -0.66483399856295
H           -0.59909516045243       -1.13210493125279       -1.80297575527247
H           -0.69802029543256       -2.00631745088492       -0.26342951794540
H           -2.17217664967164       -1.51169614199662       -1.09310034240919
H           -1.79606271422955        0.90048337484134        1.83929874239452
H           -1.18815125216491       -0.76610447277865        1.88370610132399
H           -2.79302526382152       -0.42768168263679        1.22386158812068
H            0.00666175662077        1.43929075787182       -1.90814989319611
