  9
 
 C          1.3105870144       -0.7084495437       -0.0002134856
 C          1.3115184643        0.7066322046        0.0001779112
 C          0.0591913727        1.2260957327       -0.0006262247
 S         -1.1478365569        0.0007301834        0.0012141573
 C          0.0575890330       -1.2262799381       -0.0004031102
 H          2.2046974403       -1.3059385261        0.0000690741
 H          2.2063132231        1.3030944943        0.0005786457
 H         -0.2393742017        2.2554216327       -0.0009945369
 H         -0.2423196448       -2.2552135151       -0.0003507425
           9
        -13.81827535
 C          1.3104482881       -0.7071944617        0.0000380662
 C          1.3101733218        0.7073731963        0.0000643360
 C          0.0572092294        1.2258032094       -0.0002483973
 S         -1.1482054982       -0.0001021970        0.0001114029
 C          0.0574065769       -1.2257354089       -0.0002653118
 H          2.2042861496       -1.3048199407        0.0008358427
 H          2.2039584643        1.3052586518        0.0004515430
 H         -0.2408000001        2.2552324160        0.0000426236
 H         -0.2399402331       -2.2553582965        0.0000278952
