 9

C     -0.468000    -0.088000    -0.972000
C     -0.253000     0.809000    -2.058000
C     -0.978000     0.454000    -3.174000
S     -1.915000    -0.956000    -2.910000
C     -1.350000    -1.095000    -1.299000
H     -0.000000    -0.000000     0.000000
H      0.401000     1.670000    -2.022000
H     -1.003000     0.955000    -4.131000
H     -1.690000    -1.905000    -0.669000
