  9
 
 C         -0.4680000000       -0.0880000000       -0.9720000000
 C         -0.2530000000        0.8090000000       -2.0580000000
 C         -0.9780000000        0.4540000000       -3.1740000000
 S         -1.9150000000       -0.9560000000       -2.9100000000
 C         -1.3500000000       -1.0950000000       -1.2990000000
 H          0.0000000000        0.0000000000        0.0000000000
 H          0.4010000000        1.6700000000       -2.0220000000
 H         -1.0030000000        0.9550000000       -4.1310000000
 H         -1.6900000000       -1.9050000000       -0.6690000000
