 17

C     -1.114000    -1.353000     1.710000
C     -0.481000    -0.932000     0.392000
C      0.441000     0.273000     0.577000
C      1.103000     0.735000    -0.724000
C      2.018000     1.933000    -0.533000
Br     2.805000     2.437000    -2.243000
H     -1.770000    -2.216000     1.557000
H     -1.714000    -0.541000     2.134000
H     -0.349000    -1.633000     2.441000
H      0.085000    -1.775000    -0.020000
H     -1.280000    -0.696000    -0.319000
H     -0.120000     1.105000     1.019000
H      1.233000     0.013000     1.290000
H      1.680000    -0.106000    -1.130000
H      0.329000     0.965000    -1.468000
H      2.851000     1.710000     0.139000
H      1.483000     2.817000    -0.176000
