  17
 
 C         -1.1140000000       -1.3530000000        1.7100000000
 C         -0.4810000000       -0.9320000000        0.3920000000
 C          0.4410000000        0.2730000000        0.5770000000
 C          1.1030000000        0.7350000000       -0.7240000000
 C          2.0180000000        1.9330000000       -0.5330000000
 Br         2.8050000000        2.4370000000       -2.2430000000
 H         -1.7700000000       -2.2160000000        1.5570000000
 H         -1.7140000000       -0.5410000000        2.1340000000
 H         -0.3490000000       -1.6330000000        2.4410000000
 H          0.0850000000       -1.7750000000       -0.0200000000
 H         -1.2800000000       -0.6960000000       -0.3190000000
 H         -0.1200000000        1.1050000000        1.0190000000
 H          1.2330000000        0.0130000000        1.2900000000
 H          1.6800000000       -0.1060000000       -1.1300000000
 H          0.3290000000        0.9650000000       -1.4680000000
 H          2.8510000000        1.7100000000        0.1390000000
 H          1.4830000000        2.8170000000       -0.1760000000
