 xtb: 6.7.1 (edcfbbe)
          04112512183D

 26 26  0     0  0            999 V2000
    4.1510    0.0691   -0.4609 C   0  0  0  0  0  0  0  0  0  0  0  0
    2.7262   -0.1819   -0.4876 N   0  0  0  0  0  0  0  0  0  0  0  0
    2.2906   -1.0902   -1.5232 C   0  0  0  0  0  0  0  0  0  0  0  0
    1.9290    0.3654    0.4409 C   0  0  0  0  0  0  0  0  0  0  0  0
    2.3736    1.0483    1.3717 O   0  0  0  0  0  0  0  0  0  0  0  0
    0.4582    0.1414    0.3167 C   0  0  0  0  0  0  0  0  0  0  0  0
   -0.2515    0.5732   -0.7966 C   0  0  0  0  0  0  0  0  0  0  0  0
   -1.6276    0.4393   -0.8588 C   0  0  0  0  0  0  0  0  0  0  0  0
   -2.3172   -0.1390    0.2025 C   0  0  0  0  0  0  0  0  0  0  0  0
   -1.6069   -0.5628    1.3285 C   0  0  0  0  0  0  0  0  0  0  0  0
   -0.2394   -0.4109    1.3881 C   0  0  0  0  0  0  0  0  0  0  0  0
   -3.6629   -0.3300    0.2457 O   0  0  0  0  0  0  0  0  0  0  0  0
   -4.4465    0.0837   -0.8595 C   0  0  0  0  0  0  0  0  0  0  0  0
    4.3586    0.7874    0.3295 H   0  0  0  0  0  0  0  0  0  0  0  0
    4.4707    0.4751   -1.4208 H   0  0  0  0  0  0  0  0  0  0  0  0
    4.6948   -0.8552   -0.2607 H   0  0  0  0  0  0  0  0  0  0  0  0
    1.2702   -1.4142   -1.3420 H   0  0  0  0  0  0  0  0  0  0  0  0
    2.9463   -1.9619   -1.5255 H   0  0  0  0  0  0  0  0  0  0  0  0
    2.3502   -0.6076   -2.5007 H   0  0  0  0  0  0  0  0  0  0  0  0
    0.2708    1.0348   -1.6205 H   0  0  0  0  0  0  0  0  0  0  0  0
   -2.1482    0.7914   -1.7340 H   0  0  0  0  0  0  0  0  0  0  0  0
   -2.1564   -1.0000    2.1465 H   0  0  0  0  0  0  0  0  0  0  0  0
    0.3056   -0.7222    2.2664 H   0  0  0  0  0  0  0  0  0  0  0  0
   -4.3657    1.1619   -1.0182 H   0  0  0  0  0  0  0  0  0  0  0  0
   -5.4698   -0.1712   -0.5941 H   0  0  0  0  0  0  0  0  0  0  0  0
   -4.1581   -0.4499   -1.7684 H   0  0  0  0  0  0  0  0  0  0  0  0
  1  2  1  0  0  0  0
  2  3  1  0  0  0  0
  2  4  4  0  0  0  0
  4  5  2  0  0  0  0
  4  6  1  0  0  0  0
  6  7  4  0  0  0  0
  7  8  4  0  0  0  0
  8  9  4  0  0  0  0
  9 10  4  0  0  0  0
  6 11  4  0  0  0  0
 10 11  4  0  0  0  0
  9 12  1  0  0  0  0
 12 13  1  0  0  0  0
  1 14  1  0  0  0  0
  1 15  1  0  0  0  0
  1 16  1  0  0  0  0
  3 17  1  0  0  0  0
  3 18  1  0  0  0  0
  3 19  1  0  0  0  0
  7 20  1  0  0  0  0
  8 21  1  0  0  0  0
 10 22  1  0  0  0  0
 11 23  1  0  0  0  0
 13 24  1  0  0  0  0
 13 25  1  0  0  0  0
 13 26  1  0  0  0  0
M  END
