15
 xtb: 6.7.1 (edcfbbe)
C           -1.90292727817478       -0.94295347028131        0.26487900313910
C           -1.22281239784897       -0.02800237297583       -0.73958852696534
S           -0.00065623703420        1.13519502068523       -0.00051671183862
C            1.22243254063687       -0.02659689809426        0.73931426776961
C            1.90282384721590       -0.94384721671800       -0.26284028746990
H           -2.65171135753233       -1.55810850745428       -0.24730783701948
H           -1.19025406872418       -1.62170873595847        0.74285130352811
H           -2.40763300789218       -0.36758641830494        1.04674226767178
H           -1.95515612200383        0.62598478892784       -1.22479177509635
H           -0.73239278796904       -0.60476330814234       -1.53018045806407
H            1.95483519373929        0.62803845544728        1.22353509806455
H            0.73212608663459       -0.60200706292008        1.53091851941438
H            2.40723922425119       -0.36973029380592       -1.04575963623864
H            2.65174819359261       -1.55807669990084        0.25032181914708
H            1.18998754167967       -1.62339887594036       -0.73945342257941
