21
 xtb: 6.7.1 (edcfbbe)
C            1.79977919579880       -1.09621859747486        0.47097141562953
C            1.28926165527838        0.29771999344408        0.83239531556484
C            0.17608089387397        0.88560908459682       -0.04096026607328
H           -0.05769132374240        1.87456675943885        0.38560904011264
C           -1.16266802416928        0.13413881570316       -0.12005289083482
C           -1.15312549130407       -1.15372557128128       -0.94909272067318
C           -1.71707295451083       -0.12643748374592        1.28015715720332
O            0.63549909741572        1.07740238285917       -1.40089343168793
H            2.74989497763612       -1.29245717956460        0.97845571540705
H            1.97412783499855       -1.19439537243533       -0.60540110537930
H            1.10004100058966       -1.87873305275237        0.77471843756012
H            0.95062736226497        0.31231198347598        1.87529935832062
H            2.12400935639775        1.01023552356516        0.78116580816851
H           -1.84559652252102        0.83229149430282       -0.62502772434631
H           -0.68251272885018       -1.00969388448334       -1.92539089469932
H           -0.63625303983874       -1.96850946552306       -0.43648790600503
H           -2.18432464341211       -1.47986375871588       -1.12367467745545
H           -1.72361030109926        0.78491277917127        1.88870964173267
H           -1.12227730204116       -0.88204615201005        1.80558039236559
H           -2.74536554167114       -0.49742782588047        1.21939252725550
H            1.42194176907907        1.63684552025604       -1.35922687226702
