21
 xtb: 6.7.1 (edcfbbe)
C           -2.57941347435658       -0.44094672164562       -0.62713372856618
C           -1.72152587219603        0.11877027262785        0.50748856056059
C           -0.47432249707133        0.88089411104164        0.02992596482917
C            0.83933552839317        0.08083282148708        0.00044744051937
C            1.96505736711077        0.96400996243162       -0.53448106551692
C            0.74143981420608       -1.20598034826479       -0.80561912525141
O            1.17639926221158       -0.34308616985440        1.35283611641190
H           -2.95060504332596        0.36919522442109       -1.26509788177810
H           -3.44839834014969       -0.98071798308770       -0.23523819258102
H           -2.01873655706789       -1.13170716198973       -1.26416373700479
H           -2.34267094369408        0.79429194610072        1.10671205845582
H           -1.42079828282690       -0.69001873287265        1.18477635456421
H           -0.65250200928053        1.28502554947226       -0.97509053134292
H           -0.29443835871258        1.74658874021631        0.68071833449830
H            2.06692398243258        1.86791156649047        0.07673549063945
H            1.75951517075474        1.27075659784506       -1.56494896793540
H            2.91603615200132        0.42238724216877       -0.51808714710854
H            0.47374700945336       -0.98518445781968       -1.84261428595828
H           -0.01146374740408       -1.87934616767445       -0.38618629641073
H            1.70625728348481       -1.72378680637584       -0.80047440322870
H            1.26832207667609        0.45939968480072        1.88473009156405
