 19

C      4.749000    -1.803000     0.253000
C      4.344000    -0.980000     1.479000
C      5.120000    -1.466000     2.705000
C      2.834000    -1.071000     1.743000
C      1.978000    -0.564000     0.592000
O      1.163000    -1.272000     0.003000
C      2.211000     0.864000     0.171000
H      4.202000    -1.467000    -0.635000
H      5.820000    -1.706000     0.045000
H      4.527000    -2.865000     0.394000
H      4.622000     0.066000     1.298000
H      4.845000    -0.889000     3.594000
H      6.201000    -1.366000     2.557000
H      4.902000    -2.519000     2.911000
H      2.569000    -0.464000     2.617000
H      2.552000    -2.109000     1.953000
H      2.983000     0.896000    -0.602000
H      1.286000     1.285000    -0.233000
H      2.518000     1.456000     1.037000
