  19
 
 C          4.7490000000       -1.8030000000        0.2530000000
 C          4.3440000000       -0.9800000000        1.4790000000
 C          5.1200000000       -1.4660000000        2.7050000000
 C          2.8340000000       -1.0710000000        1.7430000000
 C          1.9780000000       -0.5640000000        0.5920000000
 O          1.1630000000       -1.2720000000        0.0030000000
 C          2.2110000000        0.8640000000        0.1710000000
 H          4.2020000000       -1.4670000000       -0.6350000000
 H          5.8200000000       -1.7060000000        0.0450000000
 H          4.5270000000       -2.8650000000        0.3940000000
 H          4.6220000000        0.0660000000        1.2980000000
 H          4.8450000000       -0.8890000000        3.5940000000
 H          6.2010000000       -1.3660000000        2.5570000000
 H          4.9020000000       -2.5190000000        2.9110000000
 H          2.5690000000       -0.4640000000        2.6170000000
 H          2.5520000000       -2.1090000000        1.9530000000
 H          2.9830000000        0.8960000000       -0.6020000000
 H          1.2860000000        1.2850000000       -0.2330000000
 H          2.5180000000        1.4560000000        1.0370000000
