 xtb: 6.7.1 (edcfbbe)
          04112511103D

 18 17  0     0  0            999 V2000
    1.9759    0.3182    0.6986 C   0  0  0  0  0  0  0  0  0  0  0  0
    1.4064   -0.7214   -0.2589 C   0  0  0  0  0  0  0  0  0  0  0  0
    0.2540   -0.1892   -1.1127 C   0  0  0  0  0  0  0  0  0  0  0  0
   -1.0572    0.1239   -0.3751 C   0  0  0  0  0  0  0  0  0  0  0  0
   -1.8200    0.3044   -1.1539 H   0  0  0  0  0  0  0  0  0  0  0  0
   -1.5372   -1.0248    0.5124 C   0  0  0  0  0  0  0  0  0  0  0  0
   -0.8903    1.3213    0.3686 O   0  0  0  0  0  0  0  0  0  0  0  0
    2.3665    1.1681    0.1436 H   0  0  0  0  0  0  0  0  0  0  0  0
    2.7825   -0.1109    1.2889 H   0  0  0  0  0  0  0  0  0  0  0  0
    1.2051    0.6852    1.3696 H   0  0  0  0  0  0  0  0  0  0  0  0
    2.1987   -1.0476   -0.9372 H   0  0  0  0  0  0  0  0  0  0  0  0
    1.0774   -1.5974    0.3011 H   0  0  0  0  0  0  0  0  0  0  0  0
    0.5750    0.7307   -1.6059 H   0  0  0  0  0  0  0  0  0  0  0  0
    0.0223   -0.9247   -1.8855 H   0  0  0  0  0  0  0  0  0  0  0  0
   -0.8862   -1.1307    1.3759 H   0  0  0  0  0  0  0  0  0  0  0  0
   -2.5488   -0.8329    0.8636 H   0  0  0  0  0  0  0  0  0  0  0  0
   -1.5372   -1.9526   -0.0518 H   0  0  0  0  0  0  0  0  0  0  0  0
   -1.7177    1.5283    0.8228 H   0  0  0  0  0  0  0  0  0  0  0  0
  1  2  1  0  0  0  0
  2  3  1  0  0  0  0
  3  4  1  0  0  0  0
  4  5  1  0  0  0  0
  4  6  1  0  0  0  0
  4  7  1  0  0  0  0
  1  8  1  0  0  0  0
  1  9  1  0  0  0  0
  1 10  1  0  0  0  0
  2 11  1  0  0  0  0
  2 12  1  0  0  0  0
  3 13  1  0  0  0  0
  3 14  1  0  0  0  0
  6 15  1  0  0  0  0
  6 16  1  0  0  0  0
  6 17  1  0  0  0  0
  7 18  1  0  0  0  0
M  END
