26
 xtb: 6.7.1 (edcfbbe)
C           -1.60356018595498       -0.71394850652420        1.27943254467099
C           -1.21860800756490       -0.46927154229835       -0.18076895544707
C           -2.41983909080846        0.07184155402408       -0.96189815593642
C            0.03288649195738        0.42955266828198       -0.34128644042771
C           -0.19400387977424        1.84136041675817        0.21212224364520
C            1.31595463598463       -0.19839657185120        0.25489872227432
C            1.55213067623253       -1.62952651886603       -0.23641369616389
C            2.55031482702028        0.65208572954700       -0.06437922652416
H           -2.46455885163516       -1.38896353394025        1.33933262912158
H           -0.78709147349002       -1.16669151151499        1.85160861112720
H           -1.88479217607783        0.22171175514632        1.77637138651836
H           -0.97098818889029       -1.43902755264621       -0.62889223804299
H           -2.83937544555564        0.97244878582229       -0.50076611361860
H           -3.21929978773223       -0.67638412600601       -0.99652949797487
H           -2.14533203557107        0.31739587822621       -1.99431776719133
H            0.20462522426275        0.51749256126232       -1.42636878120768
H           -1.15496747774244        2.25222024847884       -0.11091952901094
H            0.57928682539685        2.53393176543807       -0.13061741342408
H           -0.17885254265770        1.84543900433729        1.30844887047524
H            1.20321335041511       -0.22570548113561        1.34859553034174
H            2.52247754288949       -1.99760195338604        0.11441024721508
H            0.78989578000782       -2.32832544312065        0.11996565132910
H            1.55895407014993       -1.66726642363243       -1.33337406127374
H            2.50297738270636        1.64523965501008        0.39043151807558
H            2.66005636130519        0.78092778265224       -1.14892599798414
H            3.45829096849739        0.16453010394119        0.30674315594600
