19
 xtb: 6.7.1 (edcfbbe)
C            1.94929502260815        0.73865061856175       -0.71487250864132
C            1.35855964116729        0.00667537728985        0.49256965656192
C            1.43906150708118       -1.51296342647778        0.33009118293861
C           -0.05702331646442        0.47489894502082        0.85114317924957
C           -1.18630822898364        0.17267759028837       -0.10078009948327
O           -1.01789026159398       -0.21412136815986       -1.25312718328515
C           -2.56938697576440        0.36958108111338        0.45411481858091
H            1.88435494900983        1.82491234694286       -0.58779943212027
H            3.00654794048272        0.47847174551087       -0.83538045690209
H            1.43195737404880        0.47402964674154       -1.64102685809634
H            1.97471112503656        0.27319403407751        1.36194729259347
H            2.48121191900108       -1.83124383855306        0.22046452328511
H            0.89185742540030       -1.85163451448436       -0.55498128060762
H            1.02172951642360       -2.02557925616168        1.20382952078972
H           -0.07328886209112        1.56865194262074        0.97869305640154
H           -0.35292001283342        0.07760303446635        1.83150822617713
H           -2.62054822672339        1.26037197528466        1.08703737832693
H           -3.30708434872244        0.42250025077835       -0.34834573588815
H           -2.80155647330287       -0.49041329777760        1.09531331994247
