 xtb: 6.7.1 (edcfbbe)
          04112511493D

 17 16  0     0  0            999 V2000
   -2.2311    0.8372    0.7461 C   0  0  0  0  0  0  0  0  0  0  0  0
   -1.8034    0.4030   -0.6505 C   0  0  0  0  0  0  0  0  0  0  0  0
   -0.9053   -0.8410   -0.6106 C   0  0  0  0  0  0  0  0  0  0  0  0
    0.4072   -0.5358    0.0615 C   0  0  0  0  0  0  0  0  0  0  0  0
    0.7794   -1.0017    1.1185 O   0  0  0  0  0  0  0  0  0  0  0  0
    1.1326    0.3242   -0.6455 O   0  0  0  0  0  0  0  0  0  0  0  0
    2.3993    0.7160   -0.1132 C   0  0  0  0  0  0  0  0  0  0  0  0
   -1.3629    1.0574    1.3645 H   0  0  0  0  0  0  0  0  0  0  0  0
   -2.8518    1.7276    0.6935 H   0  0  0  0  0  0  0  0  0  0  0  0
   -2.7985    0.0479    1.2335 H   0  0  0  0  0  0  0  0  0  0  0  0
   -1.2627    1.2128   -1.1425 H   0  0  0  0  0  0  0  0  0  0  0  0
   -2.6877    0.1720   -1.2452 H   0  0  0  0  0  0  0  0  0  0  0  0
   -0.6936   -1.1662   -1.6294 H   0  0  0  0  0  0  0  0  0  0  0  0
   -1.3923   -1.6458   -0.0604 H   0  0  0  0  0  0  0  0  0  0  0  0
    3.0157   -0.1650    0.0703 H   0  0  0  0  0  0  0  0  0  0  0  0
    2.2602    1.2521    0.8265 H   0  0  0  0  0  0  0  0  0  0  0  0
    2.8474    1.3579   -0.8649 H   0  0  0  0  0  0  0  0  0  0  0  0
  1  2  1  0  0  0  0
  2  3  1  0  0  0  0
  3  4  1  0  0  0  0
  4  5  2  0  0  0  0
  4  6  1  0  0  0  0
  6  7  1  0  0  0  0
  1  8  1  0  0  0  0
  1  9  1  0  0  0  0
  1 10  1  0  0  0  0
  2 11  1  0  0  0  0
  2 12  1  0  0  0  0
  3 13  1  0  0  0  0
  3 14  1  0  0  0  0
  7 15  1  0  0  0  0
  7 16  1  0  0  0  0
  7 17  1  0  0  0  0
M  END
