  22
 
 C          1.1594323578       -0.6974998111        0.0000193145
 C          1.1594652463        0.6976470569        0.0000308480
 C          2.3647232178        1.3926921193        0.0001165198
 C          3.5759435559        0.6961605158        0.0001642581
 C          3.5759129374       -0.6960406402        0.0000797526
 C          2.3646916571       -1.3925597154        0.0000092676
 Cl         2.3330741374       -3.1031317831       -0.0000698805
 Cl         5.0516106079       -1.5581368151        0.0000627021
 Cl         5.0516452902        1.5581974402        0.0003327767
 Cl         2.3331192608        3.1032724484        0.0001704209
 O          0.0000292507        1.4229350003       -0.0000464902
 C         -1.1593920451        0.6976816772       -0.0000530330
 C         -1.1594089825       -0.6974680502        0.0000131993
 C         -2.3646829762       -1.3924890561        0.0000484562
 C         -3.5759079621       -0.6959725855        0.0000146302
 C         -3.5758943168        0.6962302798       -0.0000787158
 C         -2.3646536261        1.3927239404       -0.0001212816
 Cl        -2.3330258766        3.1033186707       -0.0002769659
 Cl        -5.0515591726        1.5583246380       -0.0001211665
 Cl        -5.0515916071       -1.5580294458        0.0000774433
 Cl        -2.3330827229       -3.1030878465        0.0001316801
 O         -0.0000028119       -1.4227496767        0.0000379213
          22
        -70.26299281
 C          1.1594193162       -0.6975770905       -0.0000428715
 C          1.1594351886        0.6975697777       -0.0000181691
 C          2.3646846843        1.3926295398        0.0000471698
 C          3.5759135186        0.6961127092        0.0000613063
 C          3.5758998786       -0.6960884462       -0.0000363403
 C          2.3646870925       -1.3926222940       -0.0000863733
 Cl         2.3330904346       -3.1031947464       -0.0001809629
 Cl         5.0516080631       -1.5581666217       -0.0000944570
 Cl         5.0516047420        1.5581676311        0.0002050337
 Cl         2.3330598648        3.1032094827        0.0001179232
 O         -0.0000096545        1.4228435800       -0.0000627896
 C         -1.1594221043        0.6975761156       -0.0000503074
 C         -1.1594220238       -0.6975736125        0.0000027557
 C         -2.3646875393       -1.3926093194        0.0000583461
 C         -3.5759210209       -0.6961076220        0.0000581218
 C         -3.5759243581        0.6960952442       -0.0000220827
 C         -2.3646921638        1.3926036787       -0.0000851012
 Cl        -2.3330852816        3.1031987960       -0.0002253440
 Cl        -5.0515997292        1.5581716040       -0.0000234680
 Cl        -5.0515941496       -1.5581824817        0.0001457255
 Cl        -2.3330664203       -3.1032077250        0.0001247176
 O         -0.0000070069       -1.4228410978       -0.0000052394
