 xtb: 6.7.1 (edcfbbe)
          04112512353D

 17 16  0     0  0            999 V2000
   -2.6279    0.4160    0.9349 C   0  0  0  0  0  0  0  0  0  0  0  0
   -2.1649    0.4118   -0.5173 C   0  0  0  0  0  0  0  0  0  0  0  0
   -0.8647   -0.3587   -0.6952 C   0  0  0  0  0  0  0  0  0  0  0  0
    0.1843    0.3565   -0.0258 O   0  0  0  0  0  0  0  0  0  0  0  0
    1.3759   -0.2200    0.0499 C   0  0  0  0  0  0  0  0  0  0  0  0
    1.6156   -1.3113   -0.4278 O   0  0  0  0  0  0  0  0  0  0  0  0
    2.3595    0.6276    0.7988 C   0  0  0  0  0  0  0  0  0  0  0  0
   -1.8673    0.8637    1.5691 H   0  0  0  0  0  0  0  0  0  0  0  0
   -3.5456    0.9882    1.0357 H   0  0  0  0  0  0  0  0  0  0  0  0
   -2.8124   -0.5990    1.2788 H   0  0  0  0  0  0  0  0  0  0  0  0
   -2.0089    1.4359   -0.8577 H   0  0  0  0  0  0  0  0  0  0  0  0
   -2.9206   -0.0527   -1.1505 H   0  0  0  0  0  0  0  0  0  0  0  0
   -0.9292   -1.3649   -0.2675 H   0  0  0  0  0  0  0  0  0  0  0  0
   -0.5954   -0.4543   -1.7524 H   0  0  0  0  0  0  0  0  0  0  0  0
    3.3397    0.5374    0.3408 H   0  0  0  0  0  0  0  0  0  0  0  0
    2.4253    0.2561    1.8194 H   0  0  0  0  0  0  0  0  0  0  0  0
    2.0242    1.6590    0.8129 H   0  0  0  0  0  0  0  0  0  0  0  0
  1  2  1  0  0  0  0
  2  3  1  0  0  0  0
  3  4  1  0  0  0  0
  4  5  1  0  0  0  0
  5  6  2  0  0  0  0
  5  7  1  0  0  0  0
  1  8  1  0  0  0  0
  1  9  1  0  0  0  0
  1 10  1  0  0  0  0
  2 11  1  0  0  0  0
  2 12  1  0  0  0  0
  3 13  1  0  0  0  0
  3 14  1  0  0  0  0
  7 15  1  0  0  0  0
  7 16  1  0  0  0  0
  7 17  1  0  0  0  0
M  END
