 xtb: 6.7.1 (edcfbbe)
          04112511103D

 18 17  0     0  0            999 V2000
    2.2755   -0.9907    0.3282 C   0  0  0  0  0  0  0  0  0  0  0  0
    1.6154    0.0598   -0.5595 C   0  0  0  0  0  0  0  0  0  0  0  0
    0.4290    0.7602    0.1141 C   0  0  0  0  0  0  0  0  0  0  0  0
   -0.9461    0.2379   -0.3159 C   0  0  0  0  0  0  0  0  0  0  0  0
   -1.0159    0.2968   -1.4160 H   0  0  0  0  0  0  0  0  0  0  0  0
   -1.2059   -1.2009    0.1224 C   0  0  0  0  0  0  0  0  0  0  0  0
   -1.8989    1.1286    0.2497 O   0  0  0  0  0  0  0  0  0  0  0  0
    3.1010   -1.4632   -0.1993 H   0  0  0  0  0  0  0  0  0  0  0  0
    1.5690   -1.7619    0.6206 H   0  0  0  0  0  0  0  0  0  0  0  0
    2.6675   -0.5273    1.2306 H   0  0  0  0  0  0  0  0  0  0  0  0
    2.3672    0.8072   -0.8190 H   0  0  0  0  0  0  0  0  0  0  0  0
    1.2842   -0.4021   -1.4918 H   0  0  0  0  0  0  0  0  0  0  0  0
    0.5037    0.6728    1.1991 H   0  0  0  0  0  0  0  0  0  0  0  0
    0.4383    1.8257   -0.1234 H   0  0  0  0  0  0  0  0  0  0  0  0
   -1.1078   -1.2835    1.2022 H   0  0  0  0  0  0  0  0  0  0  0  0
   -2.2108   -1.5072   -0.1620 H   0  0  0  0  0  0  0  0  0  0  0  0
   -0.4983   -1.8701   -0.3559 H   0  0  0  0  0  0  0  0  0  0  0  0
   -2.7898    0.8087    0.0534 H   0  0  0  0  0  0  0  0  0  0  0  0
  1  2  1  0  0  0  0
  2  3  1  0  0  0  0
  3  4  1  0  0  0  0
  4  5  1  0  0  0  0
  4  6  1  0  0  0  0
  4  7  1  0  0  0  0
  1  8  1  0  0  0  0
  1  9  1  0  0  0  0
  1 10  1  0  0  0  0
  2 11  1  0  0  0  0
  2 12  1  0  0  0  0
  3 13  1  0  0  0  0
  3 14  1  0  0  0  0
  6 15  1  0  0  0  0
  6 16  1  0  0  0  0
  6 17  1  0  0  0  0
  7 18  1  0  0  0  0
M  END
