21
 xtb: 6.7.1 (edcfbbe)
C           -2.38362207625576       -0.77226507235786       -0.12908160013642
C           -1.76235317521424        0.56415863444406        0.27863662405022
C           -0.42487794518212        0.93153052610549       -0.37568774365671
C            0.80815409035885        0.05662913339535       -0.05801888893098
C            2.07511243484610        0.86514187905012       -0.30979396317615
C            0.85464242207736       -1.23254002298666       -0.87855431819281
O            0.84390240622069       -0.27161227222196        1.35978669640187
H           -2.38381433306956       -0.89496978302607       -1.21821847834219
H           -3.42222069561279       -0.82913654594785        0.21372946749274
H           -1.85439189886874       -1.62547893159438        0.30554501162111
H           -2.46515258916097        1.36625467385911        0.02204748313835
H           -1.65801880260171        0.60120831525862        1.37042936491670
H           -0.54663213441787        0.95423971629736       -1.46655634040436
H           -0.18533993358312        1.95721594992192       -0.06763588322163
H            2.10831362407066        1.74172398616746        0.34509760474093
H            2.09887883562410        1.21157096385359       -1.34737008888842
H            2.96635133177574        0.25584885158000       -0.12851810015923
H            1.77181456575252       -1.78593086184465       -0.65115882806813
H            0.84939362145583       -1.00261911596624       -1.94890102242803
H            0.00211990874580       -1.88179336141032       -0.66709671029660
H            0.09823189733312       -0.86080542154364        1.53623793305321
