 xtb: 6.7.1 (edcfbbe)
          04112512013D

 18 17  0     0  0            999 V2000
    1.5888   -1.1893   -0.6501 C   0  0  0  0  0  0  0  0  0  0  0  0
    1.0603   -0.2754    0.4548 C   0  0  0  0  0  0  0  0  0  0  0  0
    1.2358    1.1908    0.0699 C   0  0  0  0  0  0  0  0  0  0  0  0
   -0.3934   -0.6032    0.8271 C   0  0  0  0  0  0  0  0  0  0  0  0
   -1.4408   -0.3343   -0.2542 C   0  0  0  0  0  0  0  0  0  0  0  0
   -1.7734    1.0420   -0.2712 O   0  0  0  0  0  0  0  0  0  0  0  0
    2.6526   -1.0184   -0.7965 H   0  0  0  0  0  0  0  0  0  0  0  0
    1.0855   -0.9940   -1.5936 H   0  0  0  0  0  0  0  0  0  0  0  0
    1.4409   -2.2343   -0.3877 H   0  0  0  0  0  0  0  0  0  0  0  0
    1.6571   -0.4634    1.3558 H   0  0  0  0  0  0  0  0  0  0  0  0
    0.6839    1.4180   -0.8376 H   0  0  0  0  0  0  0  0  0  0  0  0
    2.2870    1.4144   -0.0978 H   0  0  0  0  0  0  0  0  0  0  0  0
    0.8624    1.8385    0.8591 H   0  0  0  0  0  0  0  0  0  0  0  0
   -0.6760   -0.0126    1.7009 H   0  0  0  0  0  0  0  0  0  0  0  0
   -0.4511   -1.6591    1.0976 H   0  0  0  0  0  0  0  0  0  0  0  0
   -1.0684   -0.6478   -1.2371 H   0  0  0  0  0  0  0  0  0  0  0  0
   -2.3383   -0.9252   -0.0236 H   0  0  0  0  0  0  0  0  0  0  0  0
   -2.4747    1.1939   -0.9175 H   0  0  0  0  0  0  0  0  0  0  0  0
  1  2  1  0  0  0  0
  2  3  1  0  0  0  0
  2  4  1  0  0  0  0
  4  5  1  0  0  0  0
  5  6  1  0  0  0  0
  1  7  1  0  0  0  0
  1  8  1  0  0  0  0
  1  9  1  0  0  0  0
  2 10  1  0  0  0  0
  3 11  1  0  0  0  0
  3 12  1  0  0  0  0
  3 13  1  0  0  0  0
  4 14  1  0  0  0  0
  4 15  1  0  0  0  0
  5 16  1  0  0  0  0
  5 17  1  0  0  0  0
  6 18  1  0  0  0  0
M  END
