  17
 
 C          2.7202093574        0.0098517659        0.7070666730
 C          1.9344741213       -0.0032759996       -0.6053819764
 C          0.4601756208        0.0269024369       -0.3267051228
 C         -0.2242883682        1.2291740528       -0.1675842924
 C         -1.5762522021        1.1963484642        0.1245131136
 C         -2.2021673900       -0.0340425265        0.2516738809
 C         -1.4341038123       -1.1738157850        0.0763901609
 N         -0.1441289297       -1.1477009678       -0.2045047771
 H          3.7888325826       -0.0183154198        0.5083940415
 H          2.4535042719       -0.8561542898        1.3075691201
 H          2.4961798043        0.9085212548        1.2783942981
 H          2.1677579165       -0.9158105315       -1.1544922926
 H          2.2163324729        0.8603093157       -1.2109623332
 H          0.2961525260        2.1690658477       -0.2759121649
 H         -2.1342285569        2.1138355696        0.2494346491
 H         -3.2545807383       -0.1056226791        0.4782068555
 H         -1.8695181017       -2.1613832559        0.1636984455
          17
        -22.48702809
 C          2.7216389992        0.1222765305       -0.7125763938
 C          1.9332747677       -0.1250456426        0.5748352910
 C          0.4583981421       -0.0403493269        0.3098705940
 C         -0.1901618210        1.1891986389        0.2164236636
 C         -1.5442310440        1.2120367510       -0.0646986701
 C         -2.2095300355        0.0086292542       -0.2444178317
 C         -1.4764048491       -1.1613573027       -0.1302886546
 N         -0.1830625540       -1.1881521500        0.1381031259
 H          3.7897944510        0.0526601701       -0.5210463922
 H          2.5039277638        1.1107216888       -1.1118173463
 H          2.4533722026       -0.6183236766       -1.4618939703
 H          2.2172249529        0.6156369381        1.3253784932
 H          2.1610372110       -1.1213675884        0.9538564002
 H          0.3605309324        2.1060361835        0.3662372124
 H         -2.0741332115        2.1511429041       -0.1414524698
 H         -3.2654774731       -0.0195201721       -0.4643914865
 H         -1.9436083743       -2.1297847286       -0.2580817352
