 17

C      0.391000    -1.295000     5.883000
C      0.981000    -2.130000     4.757000
C      0.730000    -1.516000     3.421000
C      1.652000    -0.623000     2.900000
C      1.388000    -0.068000     1.652000
C      0.227000    -0.420000     0.973000
C     -0.632000    -1.322000     1.580000
N     -0.409000    -1.882000     2.791000
H      0.581000    -1.754000     6.860000
H     -0.692000    -1.201000     5.757000
H      0.820000    -0.287000     5.897000
H      0.557000    -3.141000     4.785000
H      2.060000    -2.250000     4.912000
H      2.554000    -0.357000     3.440000
H      2.086000     0.636000     1.210000
H      0.000000    -0.000000    -0.000000
H     -1.551000    -1.629000     1.092000
