  17
 
 C          0.3910000000       -1.2950000000        5.8830000000
 C          0.9810000000       -2.1300000000        4.7570000000
 C          0.7300000000       -1.5160000000        3.4210000000
 C          1.6520000000       -0.6230000000        2.9000000000
 C          1.3880000000       -0.0680000000        1.6520000000
 C          0.2270000000       -0.4200000000        0.9730000000
 C         -0.6320000000       -1.3220000000        1.5800000000
 N         -0.4090000000       -1.8820000000        2.7910000000
 H          0.5810000000       -1.7540000000        6.8600000000
 H         -0.6920000000       -1.2010000000        5.7570000000
 H          0.8200000000       -0.2870000000        5.8970000000
 H          0.5570000000       -3.1410000000        4.7850000000
 H          2.0600000000       -2.2500000000        4.9120000000
 H          2.5540000000       -0.3570000000        3.4400000000
 H          2.0860000000        0.6360000000        1.2100000000
 H          0.0000000000        0.0000000000        0.0000000000
 H         -1.5510000000       -1.6290000000        1.0920000000
