  12
 
 C          2.4273538814        0.0042557288        0.0024225085
 C          0.9975318779       -0.5202855078       -0.0004767186
 C         -0.0122260444        0.6347397596       -0.0001749384
 C         -1.3652170150        0.1425268207       -0.0007935902
 N         -2.4352614923       -0.2599812401        0.0003479646
 H          3.1322129655       -0.8233067352       -0.0002258297
 H          2.6144687064        0.6159968679       -0.8778607345
 H          2.6134031814        0.6094574764        0.8874304825
 H          0.8333300045       -1.1412034407       -0.8838894420
 H          0.8308142239       -1.1439734756        0.8805086957
 H          0.1288427779        1.2600181657       -0.8869164350
 H          0.1280173490        1.2588248870        0.8875473504
          12
        -15.01640058
 C          1.6680096126        0.8910280318        0.1828025626
 C          1.2247166908       -0.4398994962       -0.4113146259
 C         -0.0368861659       -0.9756642672        0.2795961057
 C         -1.1607275682       -0.1017403476        0.0591727312
 N         -2.0450664766        0.5980093406       -0.1278603345
 H          1.9007666664        0.7815783187        1.2403931237
 H          2.5559298080        1.2564334085       -0.3272237782
 H          0.8803799800        1.6344416418        0.0794383777
 H          1.0250619720       -0.3171677786       -1.4781049526
 H          2.0215963584       -1.1785664419       -0.3003577272
 H          0.1296863460       -1.0584833724        1.3577077718
 H         -0.2937212120       -1.9654780063       -0.1089028799
