 12

C     -0.018000     0.201000    -1.076000
C     -1.184000     1.105000    -1.442000
C     -1.097000     2.451000    -0.727000
C     -2.228000     3.316000    -1.088000
N     -3.121000     4.000000    -1.372000
H     -0.089000    -0.761000    -1.593000
H      0.937000     0.665000    -1.343000
H     -0.012000     0.008000     0.001000
H     -1.196000     1.256000    -2.529000
H     -2.124000     0.602000    -1.183000
H     -0.157000     2.951000    -0.989000
H     -1.087000     2.297000     0.358000
