  16
 
 C          2.0980686430        0.9966124995       -0.2290441783
 C          1.4130073165        0.1002271956        0.4544638989
 C          0.7550493131       -1.1022547533       -0.1425439413
 C         -0.7546300751       -1.1026076105        0.1425055726
 C         -1.4130939294        0.0995397019       -0.4546243775
 C         -2.0985482391        0.9957017925        0.2287803828
 H          2.5521558344        1.8517839717        0.2418131372
 H          2.2378020429        0.9104139963       -1.2945049197
 H          1.2832415408        0.2125893221        1.5232194844
 H          1.1943352320       -2.0060696462        0.2905507538
 H          0.9268125669       -1.1225671913       -1.2206166426
 H         -0.9263902145       -1.1228728546        1.2205786906
 H         -1.1935131798       -2.0066889751       -0.2904913550
 H         -1.2835731319        0.2117190346       -1.5234327227
 H         -2.5534511756        1.8503255941       -0.2422351661
 H         -2.2385442172        0.9093699720        1.2942021992
          16
        -17.87627207
 C          2.2704843860        0.9629374867        0.1354180526
 C          1.6520044904       -0.1128558076       -0.3130162508
 C          0.6600600349       -0.9122738177        0.4688221465
 C         -0.7051677538       -0.9717498864       -0.2360175332
 C         -1.3390333263        0.3805468931       -0.3033223972
 C         -2.5183053684        0.6789743382        0.2071581416
 H          2.9797522274        1.5081613670       -0.4641968031
 H          2.0943387201        1.3436014280        1.1284304532
 H          1.8435439336       -0.4726479054       -1.3166477533
 H          0.5357152295       -0.4832777108        1.4648685335
 H          1.0367576685       -1.9336396991        0.5798226004
 H         -1.3610137718       -1.6627124462        0.2971590807
 H         -0.5606014205       -1.3524963369       -1.2517258261
 H         -0.7487799136        1.1390905680       -0.8011138369
 H         -2.9371892049        1.6687462399        0.1407568020
 H         -3.1213666283       -0.0596492448        0.7107354706
