  16
 
 C         -2.2776631597        0.0005532629       -0.2240523114
 C         -1.5953805556        1.1978205907       -0.0918991895
 C         -0.2376931965        1.1969456130        0.1749542330
 C          0.4504944734       -0.0003635030        0.3153367301
 C         -0.2383907181       -1.1972008440        0.1744002546
 C         -1.5960788496       -1.1971779476       -0.0924627045
 C          1.9350173574       -0.0008143403        0.5706750574
 O          2.5980131937       -0.0003473472       -0.6811473091
 H         -3.3380362193        0.0008970133       -0.4302517182
 H         -2.1222075840        2.1351222148       -0.1971792777
 H          0.2940560913        2.1322384864        0.2734611877
 H          0.2927981043       -2.1328528847        0.2725552900
 H         -2.1234748116       -2.1341246585       -0.1980717209
 H          2.2145155489        0.8915366066        1.1500080277
 H          2.2141303629       -0.8938447635        1.1491571787
 H          3.5491925049       -0.0005192657       -0.5329210349
          16
        -23.10649533
 C         -2.2762334424        0.3214875544       -0.0823779919
 C         -1.3474226876        1.3395326702        0.0463460542
 C         -0.0001659369        1.0408809993        0.1471990582
 C          0.4321373982       -0.2782406274        0.1155908144
 C         -0.5049056547       -1.2951820405       -0.0147316997
 C         -1.8521566543       -0.9967099480       -0.1099622948
 C          1.9018742619       -0.6027405835        0.2303232602
 O          2.7517506359        0.4186016744       -0.2344529676
 H         -3.3280922765        0.5534671776       -0.1606572859
 H         -1.6721099118        2.3695129922        0.0708350967
 H          0.7286541502        1.8311656541        0.2559448552
 H         -0.1752897431       -2.3243374340       -0.0398376284
 H         -2.5731630455       -1.7947804480       -0.2100630509
 H          2.1648781962       -0.7371593411        1.2854740739
 H          2.1122471688       -1.5486350211       -0.2923235956
 H          2.5208584622        0.6183909538       -1.1486778112
