  42
 
 C         -4.3160821281        1.1105941694        2.7332331754
 C         -3.7582007740        1.0513820560        1.3170116626
 C         -2.7344829317       -0.0827835798        1.1980748689
 N         -1.9799517659        0.0197669448       -0.0349918940
 C         -2.7261437287        0.0714507337       -1.2760564800
 C         -3.6745910961       -1.1260941952       -1.4011417059
 C         -4.2142283926       -1.2277155683       -2.8220183980
 C         -0.6322613635        0.0632330791       -0.0242892712
 C          0.1145084080        0.9122776226       -0.8908838451
 C          1.4999446371        0.9366581082       -0.8841469944
 C          2.2064324752        0.1707872276        0.0213014239
 C          1.5334912906       -0.6463545700        0.9061072315
 C          0.1504674708       -0.7329821775        0.8621287615
 N         -0.4287658374       -1.8138103006        1.6221932053
 O         -1.3749433011       -2.3973178486        1.1312540434
 O          0.1082450605       -2.1213952708        2.6619082435
 S          4.0049973955        0.2449261817        0.0380867238
 O          4.3972178509        1.5911086152       -0.2620702425
 O          4.4653261759       -0.3572127523        1.2550127330
 C          4.4593024736       -0.8231260065       -1.3555904018
 N         -0.5161788785        1.9327114718       -1.6938127037
 O         -1.5081189064        2.4683306757       -1.2455490210
 O          0.0239458483        2.2314701743       -2.7358747950
 H         -5.0605856765        1.8981885393        2.8110296839
 H         -4.7851208973        0.1659935485        2.9992134467
 H         -3.5261583343        1.3152734601        3.4520257062
 H         -3.2701516716        1.9956313601        1.0689698081
 H         -4.5784956667        0.8994371112        0.6160385968
 H         -2.0382044088        0.0142375015        2.0347480895
 H         -3.2280315913       -1.0571196306        1.2782746659
 H         -2.0168828582        0.0169216426       -2.1057315330
 H         -3.2798323782        1.0120928715       -1.3642533236
 H         -3.1301606545       -2.0361065516       -1.1425869760
 H         -4.5099479765       -1.0233593901       -0.7092691697
 H         -4.9050797118       -2.0624586863       -2.9020279091
 H         -4.7416037125       -0.3171857246       -3.0967664091
 H         -3.4065580180       -1.3835018027       -3.5334079573
 H          2.0261732679        1.6098115668       -1.5449577656
 H          2.0920234233       -1.2450483720        1.6110876432
 H          5.5402283856       -0.8349175961       -1.4223928861
 H          4.0815777601       -1.8167813709       -1.1534698172
 H          4.0288480549       -0.4077217018       -2.2573004394
          42
        -73.73945684
 C         -3.1408573488        0.2516408894        2.8566485752
 C         -3.8737546566       -0.5658971296        1.8001951379
 C         -2.9100984498       -1.1545279592        0.7622694969
 N         -2.2094770809       -0.1188310621        0.0264989939
 C         -3.0560443771        0.8108464025       -0.6983765644
 C         -2.5481518925        1.1120003155       -2.1103878858
 C         -2.6663055648       -0.1043361530       -3.0222984872
 C         -0.8616786024       -0.0579194790        0.0276608097
 C         -0.1074699536        1.1536718707        0.0174141817
 C          1.2809273513        1.1594872433        0.0308838523
 C          1.9920656459       -0.0168747328        0.1211729911
 C          1.3174455092       -1.2203980578        0.1382763067
 C         -0.0638433512       -1.2451180793        0.0415228406
 N         -0.6203177885       -2.5459085732       -0.2469073108
 O         -1.5352279703       -2.5957542002       -1.0454430509
 O         -0.0921111312       -3.5100834851        0.2573601595
 S          3.7892685224        0.0252949266        0.2024831312
 O          4.1727389880        1.2287073261        0.8811214958
 O          4.2410360596       -1.2353857365        0.7141133252
 C          4.2674037001        0.1580740321       -1.5415928199
 N         -0.6978023493        2.4608365321        0.1434544247
 O         -1.6838507986        2.5731534272        0.8448400737
 O         -0.1368111767        3.3821336846       -0.4098511531
 H         -3.8402322147        0.5933445472        3.6147042752
 H         -2.3764686032       -0.3493747784        3.3450285619
 H         -2.6689767522        1.1248403272        2.4147245052
 H         -4.6333712153        0.0516077826        1.3221795893
 H         -4.3824332770       -1.4075156108        2.2741508156
 H         -2.1861767686       -1.7569794685        1.3139644762
 H         -3.4490042832       -1.8091881551        0.0674373111
 H         -3.1945924213        1.7423656275       -0.1350420439
 H         -4.0306236137        0.3293206616       -0.7909799280
 H         -3.1503391696        1.9289461411       -2.5117943546
 H         -1.5119647618        1.4529838765       -2.0938837925
 H         -2.1500246642       -0.9625820006       -2.6005463136
 H         -3.7107398048       -0.3728456826       -3.1618626140
 H         -2.2376759475        0.1121511824       -3.9971355027
 H          1.8075124234        2.1026576594        0.0351499837
 H          1.8725028285       -2.1458618096        0.1887292028
 H          3.8984030906       -0.7173593353       -2.0596526893
 H          3.8415009913        1.0687176569       -1.9419188143
 H          5.3491184217        0.1951926116       -1.5840423430
