 xtb: 6.7.1 (edcfbbe)
          04112511413D

 14 13  0     0  0            999 V2000
   -1.4407    0.0363    0.6206 C   0  0  0  0  0  0  0  0  0  0  0  0
    0.0658    0.3337    0.5102 C   0  0  0  0  0  0  0  0  0  0  0  0
    0.8186   -0.8858   -0.0410 C   0  0  0  0  0  0  0  0  0  0  0  0
    2.2160   -0.7423   -0.0063 O   0  0  0  0  0  0  0  0  0  0  0  0
    0.2825    1.4167   -0.3741 O   0  0  0  0  0  0  0  0  0  0  0  0
   -2.0074   -0.2769   -0.6284 O   0  0  0  0  0  0  0  0  0  0  0  0
   -1.9508    0.9076    1.0564 H   0  0  0  0  0  0  0  0  0  0  0  0
   -1.6105   -0.8273    1.2651 H   0  0  0  0  0  0  0  0  0  0  0  0
    0.4530    0.5704    1.5113 H   0  0  0  0  0  0  0  0  0  0  0  0
    0.5609   -1.0161   -1.0932 H   0  0  0  0  0  0  0  0  0  0  0  0
    0.5028   -1.7777    0.5144 H   0  0  0  0  0  0  0  0  0  0  0  0
    2.5073   -0.6297    0.9098 H   0  0  0  0  0  0  0  0  0  0  0  0
    0.0445    2.2484    0.0583 H   0  0  0  0  0  0  0  0  0  0  0  0
   -1.7053    0.3892   -1.2658 H   0  0  0  0  0  0  0  0  0  0  0  0
  1  2  1  0  0  0  0
  2  3  1  0  0  0  0
  3  4  1  0  0  0  0
  2  5  1  0  0  0  0
  1  6  1  0  0  0  0
  1  7  1  0  0  0  0
  1  8  1  0  0  0  0
  2  9  1  0  0  0  0
  3 10  1  0  0  0  0
  3 11  1  0  0  0  0
  4 12  1  0  0  0  0
  5 13  1  0  0  0  0
  6 14  1  0  0  0  0
M  END
