 xtb: 6.7.1 (edcfbbe)
          04072510353D

 16 15  0     0  0            999 V2000
    1.7613    1.1322    0.3054 C   0  0  0  0  0  0  0  0  0  0  0  0
    1.1226    0.1105   -0.6356 C   0  0  0  0  0  0  0  0  0  0  0  0
    0.0000   -0.6699    0.0000 C   0  0  0  0  0  0  0  0  0  0  0  0
   -0.0006   -1.8878   -0.0007 O   0  0  0  0  0  0  0  0  0  0  0  0
   -1.1219    0.1109    0.6363 C   0  0  0  0  0  0  0  0  0  0  0  0
   -1.7615    1.1316   -0.3053 C   0  0  0  0  0  0  0  0  0  0  0  0
    2.1119    0.6441    1.2117 H   0  0  0  0  0  0  0  0  0  0  0  0
    2.6140    1.5923   -0.1865 H   0  0  0  0  0  0  0  0  0  0  0  0
    1.0597    1.9144    0.5778 H   0  0  0  0  0  0  0  0  0  0  0  0
    0.7184    0.6214   -1.5117 H   0  0  0  0  0  0  0  0  0  0  0  0
    1.8733   -0.6053   -0.9763 H   0  0  0  0  0  0  0  0  0  0  0  0
   -0.7170    0.6228    1.5115 H   0  0  0  0  0  0  0  0  0  0  0  0
   -1.8723   -0.6046    0.9782 H   0  0  0  0  0  0  0  0  0  0  0  0
   -2.6135    1.5924    0.1869 H   0  0  0  0  0  0  0  0  0  0  0  0
   -2.1130    0.6424   -1.2106 H   0  0  0  0  0  0  0  0  0  0  0  0
   -1.0600    1.9133   -0.5794 H   0  0  0  0  0  0  0  0  0  0  0  0
  1  2  1  0  0  0  0
  2  3  1  0  0  0  0
  3  4  2  0  0  0  0
  3  5  1  0  0  0  0
  5  6  1  0  0  0  0
  1  7  1  0  0  0  0
  1  8  1  0  0  0  0
  1  9  1  0  0  0  0
  2 10  1  0  0  0  0
  2 11  1  0  0  0  0
  5 12  1  0  0  0  0
  5 13  1  0  0  0  0
  6 14  1  0  0  0  0
  6 15  1  0  0  0  0
  6 16  1  0  0  0  0
M  END
