 xtb: 6.7.1 (edcfbbe)
          04112512313D

 18 17  0     0  0            999 V2000
   -1.4685    1.2676   -0.4697 C   0  0  0  0  0  0  0  0  0  0  0  0
   -1.3353    0.2623    0.6704 C   0  0  0  0  0  0  0  0  0  0  0  0
   -0.1060   -0.6594    0.6137 C   0  0  0  0  0  0  0  0  0  0  0  0
   -0.1140   -1.2354    1.5464 H   0  0  0  0  0  0  0  0  0  0  0  0
   -0.1712   -1.6490   -0.5483 C   0  0  0  0  0  0  0  0  0  0  0  0
    1.2321    0.1050    0.6023 C   0  0  0  0  0  0  0  0  0  0  0  0
    1.6732    0.5285   -0.6685 O   0  0  0  0  0  0  0  0  0  0  0  0
   -1.3969    0.7771   -1.4366 H   0  0  0  0  0  0  0  0  0  0  0  0
   -2.4393    1.7552   -0.4127 H   0  0  0  0  0  0  0  0  0  0  0  0
   -0.7100    2.0439   -0.3983 H   0  0  0  0  0  0  0  0  0  0  0  0
   -2.2232   -0.3738    0.6838 H   0  0  0  0  0  0  0  0  0  0  0  0
   -1.3123    0.8082    1.6169 H   0  0  0  0  0  0  0  0  0  0  0  0
   -0.0901   -1.1383   -1.5038 H   0  0  0  0  0  0  0  0  0  0  0  0
   -1.1075   -2.2003   -0.5232 H   0  0  0  0  0  0  0  0  0  0  0  0
    0.6525   -2.3554   -0.4795 H   0  0  0  0  0  0  0  0  0  0  0  0
    2.0261   -0.5576    0.9573 H   0  0  0  0  0  0  0  0  0  0  0  0
    1.1711    0.9613    1.2889 H   0  0  0  0  0  0  0  0  0  0  0  0
    1.0229    1.1396   -1.0402 H   0  0  0  0  0  0  0  0  0  0  0  0
  1  2  1  0  0  0  0
  2  3  1  0  0  0  0
  3  4  1  0  0  0  0
  3  5  1  0  0  0  0
  3  6  1  0  0  0  0
  6  7  1  0  0  0  0
  1  8  1  0  0  0  0
  1  9  1  0  0  0  0
  1 10  1  0  0  0  0
  2 11  1  0  0  0  0
  2 12  1  0  0  0  0
  5 13  1  0  0  0  0
  5 14  1  0  0  0  0
  5 15  1  0  0  0  0
  6 16  1  0  0  0  0
  6 17  1  0  0  0  0
  7 18  1  0  0  0  0
M  END
