17
 xtb: 6.7.1 (edcfbbe)
C           -2.39399450490112        0.24561076721469        1.06411674709625
C           -1.81037543748778        0.59968487185074       -0.31109692704326
C           -0.53168704615676       -0.15108843390535       -0.54641643959552
O           -0.43019058439509       -1.16807342237938       -1.21578936182581
O            0.50515956541878        0.40433788450059        0.10567081607507
C            1.78891914910443       -0.29030482921335        0.00043977694241
C            2.78258014922053        0.47825365079155        0.83319068756426
H           -3.34558510837416        0.76443367900184        1.20553985724882
H           -2.57506517106980       -0.83026708676921        1.14520147989317
H           -1.71625555496743        0.54594253326243        1.86770553716777
H           -1.61480470269695        1.67446075706364       -0.36851064177695
H           -2.50874935778049        0.32357423084794       -1.10398736149133
H            1.65628496360804       -1.31408879658484        0.36266158514348
H            2.07596007024423       -0.32180485930646       -1.05488397324238
H            2.89929720187619        1.50135168321546        0.46469088219042
H            2.47569673611178        0.51036206062742        1.88247140299521
H            3.75471577250238       -0.02022407590027        0.77540561130328
