 xtb: 6.7.1 (edcfbbe)
          04112511323D

 21 20  0     0  0            999 V2000
   -2.6122   -0.4803   -0.5231 C   0  0  0  0  0  0  0  0  0  0  0  0
   -1.6414    0.6909   -0.4097 C   0  0  0  0  0  0  0  0  0  0  0  0
   -0.5609    0.4799    0.6597 C   0  0  0  0  0  0  0  0  0  0  0  0
    0.8106   -0.0228    0.1624 C   0  0  0  0  0  0  0  0  0  0  0  0
    1.5182    1.0435   -0.6816 C   0  0  0  0  0  0  0  0  0  0  0  0
    0.7022   -1.3306   -0.6207 C   0  0  0  0  0  0  0  0  0  0  0  0
    1.6132   -0.3327    1.3048 O   0  0  0  0  0  0  0  0  0  0  0  0
   -3.3596   -0.2754   -1.2864 H   0  0  0  0  0  0  0  0  0  0  0  0
   -3.1256   -0.6383    0.4228 H   0  0  0  0  0  0  0  0  0  0  0  0
   -2.0945   -1.3973   -0.7878 H   0  0  0  0  0  0  0  0  0  0  0  0
   -1.1790    0.8733   -1.3800 H   0  0  0  0  0  0  0  0  0  0  0  0
   -2.2153    1.5840   -0.1549 H   0  0  0  0  0  0  0  0  0  0  0  0
   -0.3863    1.4246    1.1818 H   0  0  0  0  0  0  0  0  0  0  0  0
   -0.9231   -0.2368    1.4005 H   0  0  0  0  0  0  0  0  0  0  0  0
    0.9880    1.2142   -1.6129 H   0  0  0  0  0  0  0  0  0  0  0  0
    2.5273    0.7108   -0.9134 H   0  0  0  0  0  0  0  0  0  0  0  0
    1.5768    1.9847   -0.1386 H   0  0  0  0  0  0  0  0  0  0  0  0
    1.7019   -1.6877   -0.8554 H   0  0  0  0  0  0  0  0  0  0  0  0
    0.1522   -1.1835   -1.5435 H   0  0  0  0  0  0  0  0  0  0  0  0
    0.2076   -2.0831   -0.0125 H   0  0  0  0  0  0  0  0  0  0  0  0
    1.7560    0.4731    1.8189 H   0  0  0  0  0  0  0  0  0  0  0  0
  1  2  1  0  0  0  0
  2  3  1  0  0  0  0
  3  4  1  0  0  0  0
  4  5  1  0  0  0  0
  4  6  1  0  0  0  0
  4  7  1  0  0  0  0
  1  8  1  0  0  0  0
  1  9  1  0  0  0  0
  1 10  1  0  0  0  0
  2 11  1  0  0  0  0
  2 12  1  0  0  0  0
  3 13  1  0  0  0  0
  3 14  1  0  0  0  0
  5 15  1  0  0  0  0
  5 16  1  0  0  0  0
  5 17  1  0  0  0  0
  6 18  1  0  0  0  0
  6 19  1  0  0  0  0
  6 20  1  0  0  0  0
  7 21  1  0  0  0  0
M  END
