  4
 
 N          0.0001511531        0.0001140015       -0.0491241806
 H         -0.9394333944        0.0897225510        0.3175984774
 H          0.5476726891        0.7692926930        0.3168313482
 H          0.3926146832       -0.8583661120        0.3173638944
           4
         -4.42624401
 N          0.0000255814        0.0000410708       -0.0651391464
 H         -0.2266269447       -0.9163767316        0.3015786776
 H         -0.6804642394        0.6540257556        0.3017805272
 H          0.9067356809        0.2617802185        0.3018739349
