18
 xtb: 6.7.1 (edcfbbe)
C            2.23843406962020       -1.03926882895331        0.29352919196313
C            1.61877637686408        0.07249395633900       -0.55271860153106
C            0.43558612557001        0.79212326894739        0.12014908493143
C           -0.94187185745201        0.27190366380840       -0.28970152268726
H           -1.06567170593403        0.41852272843472       -1.36996057984350
C           -1.18503677069422       -1.19001487819228        0.04763108093042
O           -1.97369621317826        1.09776499750086        0.30660670812491
H            3.06454299124826       -1.52411845045902       -0.23761188475303
H            1.50994606795024       -1.81294140503241        0.55395745807310
H            2.63691669931530       -0.63213514422922        1.22959031657954
H            2.39932322112345        0.80711378525933       -0.78028008148052
H            1.29507174037652       -0.33174380295438       -1.52134169702767
H            0.52666439692686        0.71773591505514        1.21367112465648
H            0.45981206277859        1.85939121242622       -0.12784763252414
H           -2.20207261656313       -1.47854917120163       -0.23546200195959
H           -0.48867631911181       -1.84001302418748       -0.49034653736835
H           -1.05796656549029       -1.36281857117573        1.12305111160716
H           -1.91869967752416        0.96666453184641        1.26342521145667
