24
 xtb: 6.7.1 (edcfbbe)
C           -2.16656583102944        0.04745430977739       -1.17962546725088
C           -2.22861814397164        0.28661912472423        0.32728264721482
C           -1.21131222680811       -0.48893041245931        1.17507985314897
C            0.28867129371014       -0.30790269686773        0.87006741257160
C            0.85155711507699       -1.20262144441243       -0.25434414464824
C            2.14890756505743       -0.49850582912464       -0.65470870862794
C            1.73353172539609        0.97802623035607       -0.68268300781621
C            0.75938041484456        1.13255618308008        0.50913996817939
H           -2.23455182093203       -1.02043377506067       -1.41646665290634
H           -2.99663769208300        0.55423924809238       -1.68376484685012
H           -1.23705614416802        0.42763174031482       -1.61442238206602
H           -2.12919373373063        1.36119974508826        0.52394468561345
H           -3.22846584700395        0.01224113822841        0.68752443501076
H           -1.38935138222393       -0.21223313195998        2.22248713764758
H           -1.43919052508159       -1.56233597481788        1.10630446380465
H            0.82366102826812       -0.60425018683769        1.78181398507581
H            1.00154766703548       -2.23338655767538        0.08490108373429
H            0.16976181252555       -1.23135060761934       -1.11070951383918
H            2.91268980805896       -0.66004236879584        0.11743824517476
H            2.55814935465108       -0.84649725153169       -1.60881782333771
H            2.58395025154135        1.66488599256954       -0.62753830368584
H            1.20815291942001        1.18355439367087       -1.62324929603252
H            1.26141567645629        1.59241383788202        1.36688796585093
H           -0.07781940666473        1.78561812138882        0.24773256672380
