14
 xtb: 6.7.1 (edcfbbe)
C            1.59562438139696       -0.89076955668333       -0.06650083652976
O            1.24511294836818        0.48227581613431       -0.26077228713155
C            0.04534280819232        0.89504437059037        0.40986419878248
C           -1.25549662743963        0.48214151218052       -0.25932493425470
N           -1.62755975920651       -0.91955014594428        0.01519138886542
H            1.52073300509347       -1.16886498543248        0.99403849885176
H            2.63413656370695       -1.00120945187409       -0.39168422168451
H            0.96083725013163       -1.56170309161672       -0.65503459049346
H            0.06546291255789        0.54143686432910        1.45371121517648
H            0.09433776617795        1.98905595296056        0.42269899615392
H           -2.02425701868015        1.19695450800402        0.07942873633649
H           -1.15277330251663        0.61946464273945       -1.34225410840341
H           -2.52728369931707       -1.09720025581854       -0.42164971103888
H           -1.80045408069131       -1.00167802004061        1.01380876374904
