18
CONF14
C 2.8401891815 -0.2513059893 0.1956485020
C 1.5105678552 0.3003629450 -0.3116268801
C 0.3210549538 -0.5339753766 0.1613401956
C -1.0291905222 -0.0377187920 -0.3466430638
H -1.0070284334 -0.0038731322 -1.4473050474
C -2.1727565804 -0.9227954325 0.1078383742
O -1.3208146246 1.2939955743 0.1492778123
H 2.9942041989 -1.2809389847 -0.1460578399
H 2.8685589613 -0.2558316897 1.2909925639
H 3.6836968883 0.3499448194 -0.1584792241
H 1.4032982186 1.3375996910 0.0319954617
H 1.5158879071 0.3304589503 -1.4092329617
H 0.4506114916 -1.5691592980 -0.1818782602
H 0.2950976699 -0.5614535097 1.2597524983
H -3.1302686554 -0.5416982010 -0.2599259772
H -2.0384392031 -1.9392118419 -0.2731181199
H -2.2110210546 -0.9663358077 1.2019780790
H -0.6463843101 1.8913261630 -0.1979594673
18
CONF20
C 2.3180427586 -0.0485137840 -0.6965948330
C 1.6003190742 0.2158630432 0.6257192711
C 0.2636288857 -0.5201925466 0.7604246828
C -0.7650873327 -0.1897883403 -0.3180873633
H -0.3665286305 -0.4703160251 -1.3044258001
C -2.0760346411 -0.9160606943 -0.0910224298
O -1.0740132607 1.2276737985 -0.3328447939
H 3.3119108731 0.4108328721 -0.7005215766
H 1.7647814921 0.3609369725 -1.5489803873
H 2.4440504975 -1.1244488525 -0.8665711395
H 2.2453822229 -0.0943145611 1.4565002768
H 1.4488575532 1.2960716087 0.7545254625
H 0.4450149714 -1.6028038108 0.7243617482
H -0.1813454213 -0.3006231000 1.7401451008
H -1.9139521236 -1.9979471455 -0.1057859709
H -2.5023415219 -0.6440540711 0.8811782274
H -2.8003662304 -0.6670600722 -0.8726864625
H -0.2579063975 1.7021882732 -0.5378607970
18
CONF6
C 2.8256476942 -0.2113369168 0.2019310326
C 1.4939718799 0.3228782426 -0.3183186143
C 0.3102522188 -0.5066227905 0.1767758720
C -1.0397702932 -0.0456875650 -0.3487750192
H -1.0035232803 -0.0141137409 -1.4493015922
C -2.1720637187 -0.9594857350 0.0912528235
O -1.2573521526 1.3006772551 0.1448610093
H 2.9854651981 -1.2477050988 -0.1168922345
H 2.8537890635 -0.1924439023 1.2974721221
H 3.6673426456 0.3856259810 -0.1639911148
H 1.3727072239 1.3662204538 -0.0055382591
H 1.4981323584 0.3225433512 -1.4163818971
H 0.4477755968 -1.5518041952 -0.1283655574
H 0.2799299906 -0.4988103677 1.2756713827
H -3.1375443011 -0.5749351696 -0.2549815031
H -2.0386020880 -1.9626388503 -0.3269009570
H -2.1993225339 -1.0383847958 1.1835883781
H -2.1152328252 1.5905271223 -0.1910563430
18
CONF9
C 2.8372317805 -0.3554046449 0.1370342885
C 1.4236746379 -0.5592672492 -0.4012781484
C 0.4063097670 0.3417638931 0.2989460292
C -0.9970003988 0.2715967498 -0.2969425688
H -0.9413194510 0.5130409301 -1.3701344666
C -1.6609240596 -1.0792201187 -0.1217822492
O -1.8620264240 1.2405763747 0.3509808599
H 2.8827138081 -0.5729973357 1.2099302320
H 3.1671543424 0.6792145746 -0.0076947977
H 3.5544489985 -1.0102831641 -0.3679824686
H 1.4063033958 -0.3538936903 -1.4797328228
H 1.1362796731 -1.6098899603 -0.2773833840
H 0.3496083259 0.0848941501 1.3656367364
H 0.7528383643 1.3830338487 0.2356137720
H -1.1229826886 -1.8487456283 -0.6814933241
H -1.6759717827 -1.3656340180 0.9357892877
H -2.6901795690 -1.0505928019 -0.4922096066
H -1.4390585411 2.1045671231 0.2607973388
18
CONF7
C 2.8298208937 -0.3325858645 0.1661171189
C 1.4257553012 -0.5281299450 -0.3995948140
C 0.3926811243 0.3350727777 0.3232794166
C -0.9999131910 0.2688287741 -0.2873911748
H -0.9379957909 0.5613517162 -1.3474273465
C -1.6448685498 -1.1028845203 -0.1820797443
O -1.7987577657 1.2537447285 0.4187999555
H 3.5597568017 -0.9642132203 -0.3502892895
H 2.8614657407 -0.5864958990 1.2317764311
H 3.1536728149 0.7090903553 0.0621469560
H 1.4209162739 -0.2793084310 -1.4690709232
H 1.1476200235 -1.5858613026 -0.3227599355
H 0.3304180531 0.0358891255 1.3787922215
H 0.7240117257 1.3816058121 0.3038783597
H -1.0973256562 -1.8405003464 -0.7768483336
H -1.6631621070 -1.4393657288 0.8606915138
H -2.6734553142 -1.0716975563 -0.5583166567
H -2.6952185999 1.2018106985 0.0627436679
18
CONF1
C 2.8259760431 -0.2208931255 0.1741332158
C 1.4900120628 0.3257810764 -0.3209420688
C 0.3091673927 -0.5198571023 0.1507015282
C -1.0477192239 -0.0278003064 -0.3415027253
H -1.0225117240 0.0685875254 -1.4340979268
C -2.1772474680 -0.9617986934 0.0626961457
O -1.3160768817 1.3175784884 0.1293437592
H 2.8606522514 -0.2379031178 1.2693422814
H 3.6634195522 0.3911255486 -0.1767182567
H 2.9883591011 -1.2453533392 -0.1796680796
H 1.3669080159 1.3581663399 0.0264117696
H 1.4889323751 0.3620643625 -1.4182925845
H 0.4423099198 -1.5536533792 -0.1952495034
H 0.2889335999 -0.5571647255 1.2502525348
H -3.1397336997 -0.5843732183 -0.2956988091
H -2.0206935009 -1.9602209226 -0.3585764943
H -2.2232877210 -1.0552088988 1.1542865535
H -1.3225669977 1.2768742035 1.0959589977
18
CONF10
C 2.3103975602 -0.0352027079 -0.6926342586
C 1.5853855032 0.2405806023 0.6226412399
C 0.2520671552 -0.5006649351 0.7608815711
C -0.7736496506 -0.1908099172 -0.3192053670
H -0.3635664869 -0.4619638297 -1.3036914524
C -2.0754988435 -0.9450477993 -0.1019037853
O -1.0078774215 1.2401348006 -0.2943687849
H 1.7573086047 0.3599229285 -1.5511829737
H 2.4462420269 -1.1118010980 -0.8493073241
H 3.3007891053 0.4317929296 -0.6982220686
H 2.2285213401 -0.0594365892 1.4586750761
H 1.4222640342 1.3188190751 0.7333282021
H 0.4351401645 -1.5824480277 0.7373643699
H -0.1963059730 -0.2740653589 1.7374834357
H -2.8056479266 -0.6903029180 -0.8780581964
H -1.9022287671 -2.0258262301 -0.1432336357
H -2.5039359294 -0.6983789025 0.8760270026
H -1.6846462748 1.4281150677 -0.9575624250
18
CONF2
C 2.8334338326 -0.3504869884 0.1260401608
C 1.4219981344 -0.5279922411 -0.4277114972
C 0.4020067104 0.3330573936 0.3179055561
C -1.0064563594 0.2897519557 -0.2702290502
H -0.9703854102 0.6255873337 -1.3140114942
C -1.6478924450 -1.0866741074 -0.2002110017
O -1.8486815388 1.2665752079 0.3931951806
H 3.1572900249 0.6933856118 0.0494564008
H 3.5563330710 -0.9671624132 -0.4176636171
H 2.8771083742 -0.6362761674 1.1829996344
H 1.4068940590 -0.2632160630 -1.4933358755
H 1.1384630351 -1.5848332964 -0.3630874204
H 0.3520705817 0.0204655387 1.3713795339
H 0.7404152305 1.3773485344 0.3077836551
H -1.0813998165 -1.8170718282 -0.7857334256
H -1.6855517984 -1.4359718583 0.8389540052
H -2.6676013315 -1.0540253361 -0.5957251071
H -1.9077282224 0.9991576382 1.3208506813
18
CONF3
C 2.3131477395 -0.0115770585 -0.7056924502
C 1.5833396476 0.2121350310 0.6165935094
C 0.2587209061 -0.5474311859 0.7240704907
C -0.7846051317 -0.1796615638 -0.3278000649
H -0.3862800635 -0.3731858922 -1.3301894498
C -2.0736814893 -0.9648494324 -0.1411621377
O -1.0552988581 1.2444949802 -0.3189709523
H 2.4646844536 -1.0806902679 -0.8946909054
H 3.2966484745 0.4696633020 -0.6970306632
H 1.7546125741 0.4007990769 -1.5522345597
H 2.2284988708 -0.1065598102 1.4439620983
H 1.4045615608 1.2840996408 0.7620388274
H 0.4497954814 -1.6258562761 0.6436557896
H -0.1841348830 -0.3785819348 1.7160720479
H -1.8849309145 -2.0401443401 -0.2242830558
H -2.5001707346 -0.7686811746 0.8496661812
H -2.8110979349 -0.6858018069 -0.8997426515
H -1.3589762852 1.4654870078 0.5726841954
18
CONF8
C 2.7410080042 -0.2532572523 0.1006545635
C 1.2682196555 -0.1419086910 0.4872815083
C 0.3598712921 -0.1467443455 -0.7425592356
C -1.1312383436 0.0472017136 -0.4615883509
H -1.6629726361 0.0127455095 -1.4195400820
C -1.7210465299 -0.9992877805 0.4711715825
O -1.4010999577 1.3822319415 0.0412256375
H 3.3874542630 -0.2581648984 0.9839580123
H 3.0449087547 0.5867304508 -0.5337166209
H 2.9287041283 -1.1768880108 -0.4581295675
H 1.0034201846 -0.9743721037 1.1493510750
H 1.1152630774 0.7806054252 1.0627658192
H 0.6797211652 0.6456325501 -1.4319215968
H 0.4818975589 -1.0977077938 -1.2781127915
H -1.2888970383 -0.9207563580 1.4745508111
H -2.8042092502 -0.8706185825 0.5535984124
H -1.5207862960 -2.0070101233 0.0925317989
H -1.0384892697 1.4292927009 0.9359461725
18
CONF15
C 2.2339723401 -0.3498222617 -0.7402502370
C 1.5191648529 -0.5616725892 0.5931894381
C 0.3303512248 0.3778803600 0.8136342712
C -0.7602608981 0.2867459215 -0.2460130238
H -0.3530124834 0.5915792635 -1.2210839405
C -1.3685058670 -1.1005419314 -0.3682040601
O -1.7739143779 1.2501098924 0.1458081990
H 3.1397369263 -0.9620105390 -0.7996667147
H 2.5291740280 0.6986411248 -0.8640730503
H 1.5989858653 -0.6195515792 -1.5904456715
H 1.1892146131 -1.6046107755 0.6735729229
H 2.2305375624 -0.4031740133 1.4122117119
H -0.1275144194 0.1649209778 1.7888861141
H 0.6906566836 1.4145197315 0.8448347233
H -2.2165214944 -1.0848159008 -1.0616420961
H -0.6360746384 -1.8155834552 -0.7561986978
H -1.7192800112 -1.4563137041 0.6072820315
H -2.4599759688 1.2357084815 -0.5345036482
18
CONF16
C 2.2373874015 -0.2919449362 -0.7309473216
C 1.5020993417 -0.6260466609 0.5657939541
C 0.3167823738 0.2971863644 0.8614858822
C -0.7615718104 0.3135751623 -0.2148442951
H -0.3402097084 0.7051156269 -1.1523287692
C -1.3774514386 -1.0514437389 -0.4733917195
O -1.7731001934 1.2434586415 0.2532008433
H 3.1389652634 -0.9037207328 -0.8375991113
H 2.5420808174 0.7611120482 -0.7479693397
H 1.6118244556 -0.4720838929 -1.6114235470
H 1.1637867811 -1.6691526490 0.5397349378
H 2.2030886152 -0.5545983258 1.4057197962
H -0.1537210526 -0.0036637373 1.8069792857
H 0.6831967020 1.3236508807 0.9938226553
H -0.6417941126 -1.7360067819 -0.9076411004
H -1.7519485040 -1.4887982871 0.4593829090
H -2.2101502242 -0.9677029759 -1.1801683771
H -2.4607463819 1.2813199536 -0.4243306359
18
CONF18
C 2.2448940008 -0.3697886688 -0.7670989259
C 1.5357565871 -0.5760519087 0.5702187435
C 0.3523036420 0.3704326832 0.7976458827
C -0.7518950954 0.2900162735 -0.2544337840
H -0.3433910202 0.5561000113 -1.2401956318
C -1.4051415983 -1.0747140890 -0.3365439946
O -1.8066775143 1.2339433042 0.0699223947
H 2.5456253373 0.6765462213 -0.8930112040
H 1.6042124431 -0.6364782077 -1.6134056113
H 3.1466081750 -0.9873007827 -0.8305385821
H 1.1998874695 -1.6166073112 0.6528443299
H 2.2529663744 -0.4216913164 1.3847125006
H -0.0990423245 0.1648207322 1.7772417553
H 0.7238455133 1.4048068315 0.8228801639
H -2.2335989579 -1.0607019726 -1.0506278340
H -0.6852964333 -1.8262326202 -0.6703291716
H -1.7910527775 -1.3762980554 0.6433689890
H -1.3936240183 2.1027944421 0.1591335726
18
CONF4
C 2.2249993018 -0.3085259661 -0.7804467696
C 1.5279174205 -0.6037129908 0.5460415676
C 0.3430070008 0.3234688739 0.8364157379
C -0.7593107903 0.3144318909 -0.2209868499
H -0.3647144934 0.6916343894 -1.1711864834
C -1.3724458322 -1.0590124146 -0.4361363662
O -1.7864060650 1.2749356259 0.1389312882
H 1.5748839901 -0.5157707784 -1.6368983855
H 3.1243723344 -0.9221590968 -0.8952003061
H 2.5269724068 0.7437319848 -0.8383415510
H 1.1966524674 -1.6490318344 0.5646153500
H 2.2503857294 -0.4989599890 1.3641706031
H -0.1109224033 0.0444544561 1.7980677725
H 0.7078009020 1.3540043714 0.9376159910
H -2.1968580075 -1.0014785554 -1.1534979225
H -0.6324803794 -1.7643486454 -0.8274046729
H -1.7575601797 -1.4582999468 0.5103162814
H -2.1475233939 0.9903134164 0.9900906628
18
CONF11
C 2.7282302230 -0.2039853030 0.1263875889
C 1.2502440292 -0.1338587191 0.5033075002
C 0.3533612392 -0.1611240597 -0.7350247904
C -1.1381835957 0.0177349933 -0.4747892427
H -1.6617183207 -0.0716517590 -1.4388103185
C -1.7248591217 -0.9948439987 0.4961475433
O -1.3284368279 1.3685579629 0.0231606670
H 3.3688355668 -0.1941113334 1.0140022468
H 3.0132033827 0.6467499938 -0.5027082574
H 2.9462513261 -1.1197162029 -0.4346837154
H 1.0035277240 -0.9765395253 1.1594429306
H 1.0624340817 0.7799979824 1.0790348084
H 0.6725282230 0.6261925579 -1.4309396294
H 0.4878267757 -1.1151463968 -1.2603036552
H -2.8079157243 -0.8564424435 0.5837432514
H -1.5419046840 -2.0144690430 0.1406727886
H -1.2833603207 -0.8890946338 1.4917079196
H -2.2696124123 1.4720836287 0.2139029078
