 xtb: 6.7.1 (edcfbbe)
          04112512423D

 17 16  0     0  0            999 V2000
   -2.5737   -0.0477    0.8037 C   0  0  0  0  0  0  0  0  0  0  0  0
   -1.7469    0.7889   -0.1775 C   0  0  0  0  0  0  0  0  0  0  0  0
   -0.5036    0.0250   -0.5512 C   0  0  0  0  0  0  0  0  0  0  0  0
   -0.4433   -0.8253   -1.4165 O   0  0  0  0  0  0  0  0  0  0  0  0
    0.5293    0.3656    0.2043 O   0  0  0  0  0  0  0  0  0  0  0  0
    1.7767   -0.3160   -0.0127 C   0  0  0  0  0  0  0  0  0  0  0  0
    2.8357    0.3490    0.8448 C   0  0  0  0  0  0  0  0  0  0  0  0
   -3.4894    0.4794    1.0535 H   0  0  0  0  0  0  0  0  0  0  0  0
   -2.8297   -1.0053    0.3564 H   0  0  0  0  0  0  0  0  0  0  0  0
   -2.0109   -0.2269    1.7162 H   0  0  0  0  0  0  0  0  0  0  0  0
   -1.4566    1.7311    0.2841 H   0  0  0  0  0  0  0  0  0  0  0  0
   -2.3245    0.9720   -1.0830 H   0  0  0  0  0  0  0  0  0  0  0  0
    1.6433   -1.3701    0.2517 H   0  0  0  0  0  0  0  0  0  0  0  0
    2.0194   -0.2607   -1.0791 H   0  0  0  0  0  0  0  0  0  0  0  0
    2.9392    1.3934    0.5659 H   0  0  0  0  0  0  0  0  0  0  0  0
    2.5547    0.2924    1.8922 H   0  0  0  0  0  0  0  0  0  0  0  0
    3.7846   -0.1565    0.6998 H   0  0  0  0  0  0  0  0  0  0  0  0
  1  2  1  0  0  0  0
  2  3  1  0  0  0  0
  3  4  2  0  0  0  0
  3  5  1  0  0  0  0
  5  6  1  0  0  0  0
  6  7  1  0  0  0  0
  1  8  1  0  0  0  0
  1  9  1  0  0  0  0
  1 10  1  0  0  0  0
  2 11  1  0  0  0  0
  2 12  1  0  0  0  0
  6 13  1  0  0  0  0
  6 14  1  0  0  0  0
  7 15  1  0  0  0  0
  7 16  1  0  0  0  0
  7 17  1  0  0  0  0
M  END
