 xtb: 6.7.1 (edcfbbe)
          04112512233D

 20 19  0     0  0            999 V2000
   -2.1214    0.2216    1.3127 C   0  0  0  0  0  0  0  0  0  0  0  0
   -1.7651   -0.5721    0.0583 C   0  0  0  0  0  0  0  0  0  0  0  0
   -2.9068   -0.5374   -0.9539 C   0  0  0  0  0  0  0  0  0  0  0  0
   -0.4952   -0.0154   -0.5813 C   0  0  0  0  0  0  0  0  0  0  0  0
    0.6058   -0.2304    0.3117 O   0  0  0  0  0  0  0  0  0  0  0  0
    1.7884    0.2566   -0.0401 C   0  0  0  0  0  0  0  0  0  0  0  0
    1.9697    0.8763   -1.0693 O   0  0  0  0  0  0  0  0  0  0  0  0
    2.8484   -0.0610    0.9709 C   0  0  0  0  0  0  0  0  0  0  0  0
   -1.2922    0.2073    2.0149 H   0  0  0  0  0  0  0  0  0  0  0  0
   -2.9940   -0.2092    1.7955 H   0  0  0  0  0  0  0  0  0  0  0  0
   -2.3419    1.2553    1.0557 H   0  0  0  0  0  0  0  0  0  0  0  0
   -1.5633   -1.6095    0.3420 H   0  0  0  0  0  0  0  0  0  0  0  0
   -3.8120   -0.9380   -0.5070 H   0  0  0  0  0  0  0  0  0  0  0  0
   -2.6630   -1.1291   -1.8323 H   0  0  0  0  0  0  0  0  0  0  0  0
   -3.1002    0.4850   -1.2696 H   0  0  0  0  0  0  0  0  0  0  0  0
   -0.2735   -0.5152   -1.5304 H   0  0  0  0  0  0  0  0  0  0  0  0
   -0.5836    1.0588   -0.7773 H   0  0  0  0  0  0  0  0  0  0  0  0
    3.4520    0.8237    1.1506 H   0  0  0  0  0  0  0  0  0  0  0  0
    3.4966   -0.8323    0.5609 H   0  0  0  0  0  0  0  0  0  0  0  0
    2.3921   -0.4167    1.8880 H   0  0  0  0  0  0  0  0  0  0  0  0
  1  2  1  0  0  0  0
  2  3  1  0  0  0  0
  2  4  1  0  0  0  0
  4  5  1  0  0  0  0
  5  6  1  0  0  0  0
  6  7  2  0  0  0  0
  6  8  1  0  0  0  0
  1  9  1  0  0  0  0
  1 10  1  0  0  0  0
  1 11  1  0  0  0  0
  2 12  1  0  0  0  0
  3 13  1  0  0  0  0
  3 14  1  0  0  0  0
  3 15  1  0  0  0  0
  4 16  1  0  0  0  0
  4 17  1  0  0  0  0
  8 18  1  0  0  0  0
  8 19  1  0  0  0  0
  8 20  1  0  0  0  0
M  END
