 xtb: 6.7.1 (edcfbbe)
          04112511153D

 29 28  0     0  0            999 V2000
   -2.1912   -0.2025   -1.3685 C   0  0  0  0  0  0  0  0  0  0  0  0
   -1.7233   -0.5549    0.0412 C   0  0  0  0  0  0  0  0  0  0  0  0
   -2.9281   -0.9243    0.9079 C   0  0  0  0  0  0  0  0  0  0  0  0
   -0.9675    0.6032    0.7023 C   0  0  0  0  0  0  0  0  0  0  0  0
    0.2979    1.1238    0.0103 C   0  0  0  0  0  0  0  0  0  0  0  0
    1.5476    0.2170   -0.0430 C   0  0  0  0  0  0  0  0  0  0  0  0
    1.4920   -0.7609   -1.2204 C   0  0  0  0  0  0  0  0  0  0  0  0
    2.7660    1.1282   -0.2509 C   0  0  0  0  0  0  0  0  0  0  0  0
    1.7394   -0.5605    1.2606 C   0  0  0  0  0  0  0  0  0  0  0  0
   -1.3480   -0.0294   -2.0306 H   0  0  0  0  0  0  0  0  0  0  0  0
   -2.8060    0.6950   -1.3476 H   0  0  0  0  0  0  0  0  0  0  0  0
   -2.7846   -1.0149   -1.7825 H   0  0  0  0  0  0  0  0  0  0  0  0
   -1.0714   -1.4317   -0.0118 H   0  0  0  0  0  0  0  0  0  0  0  0
   -2.6114   -1.1986    1.9118 H   0  0  0  0  0  0  0  0  0  0  0  0
   -3.6131   -0.0823    0.9830 H   0  0  0  0  0  0  0  0  0  0  0  0
   -3.4656   -1.7658    0.4765 H   0  0  0  0  0  0  0  0  0  0  0  0
   -1.6598    1.4481    0.7699 H   0  0  0  0  0  0  0  0  0  0  0  0
   -0.7195    0.3148    1.7251 H   0  0  0  0  0  0  0  0  0  0  0  0
    0.5811    2.0300    0.5532 H   0  0  0  0  0  0  0  0  0  0  0  0
    0.0524    1.4312   -1.0076 H   0  0  0  0  0  0  0  0  0  0  0  0
    0.6638   -1.4556   -1.1269 H   0  0  0  0  0  0  0  0  0  0  0  0
    1.3845   -0.2212   -2.1591 H   0  0  0  0  0  0  0  0  0  0  0  0
    2.4126   -1.3394   -1.2667 H   0  0  0  0  0  0  0  0  0  0  0  0
    3.6704    0.5354   -0.3687 H   0  0  0  0  0  0  0  0  0  0  0  0
    2.6386    1.7377   -1.1430 H   0  0  0  0  0  0  0  0  0  0  0  0
    2.9019    1.7909    0.6009 H   0  0  0  0  0  0  0  0  0  0  0  0
    1.7355    0.1151    2.1131 H   0  0  0  0  0  0  0  0  0  0  0  0
    2.6942   -1.0820    1.2441 H   0  0  0  0  0  0  0  0  0  0  0  0
    0.9544   -1.2992    1.3965 H   0  0  0  0  0  0  0  0  0  0  0  0
  1  2  1  0  0  0  0
  2  3  1  0  0  0  0
  2  4  1  0  0  0  0
  4  5  1  0  0  0  0
  5  6  1  0  0  0  0
  6  7  1  0  0  0  0
  6  8  1  0  0  0  0
  6  9  1  0  0  0  0
  1 10  1  0  0  0  0
  1 11  1  0  0  0  0
  1 12  1  0  0  0  0
  2 13  1  0  0  0  0
  3 14  1  0  0  0  0
  3 15  1  0  0  0  0
  3 16  1  0  0  0  0
  4 17  1  0  0  0  0
  4 18  1  0  0  0  0
  5 19  1  0  0  0  0
  5 20  1  0  0  0  0
  7 21  1  0  0  0  0
  7 22  1  0  0  0  0
  7 23  1  0  0  0  0
  8 24  1  0  0  0  0
  8 25  1  0  0  0  0
  8 26  1  0  0  0  0
  9 27  1  0  0  0  0
  9 28  1  0  0  0  0
  9 29  1  0  0  0  0
M  END
