  22
 
 C         -4.3862060359       -0.0012117835        0.0001853303
 C         -3.6932665360       -0.0007539498       -1.1986060857
 C         -2.3097682889       -0.0002822843       -1.2014072384
 C         -1.6127278609       -0.0002972355       -0.0000157755
 C         -2.3096195915       -0.0007265044        1.2014733277
 C         -3.6931107850       -0.0011707102        1.1988907445
 C         -0.1314456711       -0.0000310848       -0.0000422374
 C          0.5909110720       -1.1910798546       -0.0000476933
 C          1.9763411894       -1.2075347813        0.0000906999
 C          2.6568159501        0.0001688186        0.0002684158
 C          1.9761613550        1.2077703305        0.0002212499
 C          0.5907235179        1.1911291520        0.0000684527
 Cl        -0.2702962112        2.6843296227        0.0001293096
 Cl         4.3779292112        0.0003123087        0.0004264313
 Cl        -0.2699181612       -2.6844148006       -0.0001804714
 H         -5.4661259801       -0.0018278831        0.0002646156
 H         -4.2307600820       -0.0008325250       -2.1353474627
 H         -1.7634526104        0.0001421327       -2.1334074588
 H         -1.7631535589       -0.0006902045        2.1333914717
 H         -4.2304774292       -0.0016442019        2.1357025206
 H          2.5113897100       -2.1429565736        0.0000755027
 H          2.5111052781        2.1432462625        0.0003183769
          22
        -42.91758639
 C         -4.3916012148       -0.0007613824       -0.0003967588
 C         -3.6982456181        0.5781371590       -1.0499173422
 C         -2.3152906490        0.5828435356       -1.0505219634
 C         -1.6153078091        0.0008799355        0.0002810522
 C         -2.3151725871       -0.5815867437        1.0509329984
 C         -3.6980910850       -0.5785584167        1.0496488232
 C         -0.1380132184        0.0006339251        0.0002697496
 C          0.5887041063       -1.1887079212       -0.0627374158
 C          1.9739270778       -1.2046139112       -0.0653282680
 C          2.6567587016       -0.0006510723       -0.0001341174
 C          1.9750499929        1.2039272084        0.0652936316
 C          0.5897733740        1.1893014116        0.0630877450
 Cl        -0.2509469183        2.6906415058        0.1721831548
 Cl         4.3779657703       -0.0015144328       -0.0002473869
 Cl        -0.2533906734       -2.6893586764       -0.1720730535
 H         -5.4714639430       -0.0016744714       -0.0008136662
 H         -4.2356555078        1.0282032148       -1.8714104220
 H         -1.7719989541        1.0273485799       -1.8714109076
 H         -1.7716607232       -1.0253309735        1.8721015625
 H         -4.2353419766       -1.0292976816        1.8708800305
 H          2.5076504810       -2.1392266340       -0.1196503719
 H          2.5096045945        2.1380700579        0.1194349515
