 22

C      1.885000    -1.036000    -0.112000
C      2.921000    -1.631000     0.608000
C      2.878000    -1.652000     2.002000
C      1.800000    -1.079000     2.676000
C      0.764000    -0.484000     1.955000
C      0.807000    -0.463000     0.561000
C      1.755000    -1.101000     4.122000
C      1.150000    -2.168000     4.784000
C      1.106000    -2.190000     6.178000
C      1.668000    -1.143000     6.910000
C      2.273000    -0.075000     6.247000
C      2.317000    -0.054000     4.853000
Cl     3.082000     1.299000     4.091000
Cl     1.616000    -1.171000     8.630000
Cl     0.435000    -3.497000     3.936000
H      1.917000    -1.021000    -1.198000
H      3.760000    -2.079000     0.084000
H      3.693000    -2.120000     2.550000
H     -0.084000    -0.033000     2.466000
H     -0.001000    -0.002000     0.000000
H      0.636000    -3.022000     6.698000
H      2.711000     0.739000     6.820000
