  22
 
 C          1.8850000000       -1.0360000000       -0.1120000000
 C          2.9210000000       -1.6310000000        0.6080000000
 C          2.8780000000       -1.6520000000        2.0020000000
 C          1.8000000000       -1.0790000000        2.6760000000
 C          0.7640000000       -0.4840000000        1.9550000000
 C          0.8070000000       -0.4630000000        0.5610000000
 C          1.7550000000       -1.1010000000        4.1220000000
 C          1.1500000000       -2.1680000000        4.7840000000
 C          1.1060000000       -2.1900000000        6.1780000000
 C          1.6680000000       -1.1430000000        6.9100000000
 C          2.2730000000       -0.0750000000        6.2470000000
 C          2.3170000000       -0.0540000000        4.8530000000
 Cl         3.0820000000        1.2990000000        4.0910000000
 Cl         1.6160000000       -1.1710000000        8.6300000000
 Cl         0.4350000000       -3.4970000000        3.9360000000
 H          1.9170000000       -1.0210000000       -1.1980000000
 H          3.7600000000       -2.0790000000        0.0840000000
 H          3.6930000000       -2.1200000000        2.5500000000
 H         -0.0840000000       -0.0330000000        2.4660000000
 H         -0.0010000000       -0.0020000000        0.0000000000
 H          0.6360000000       -3.0220000000        6.6980000000
 H          2.7110000000        0.7390000000        6.8200000000
