 xtb: 6.7.1 (edcfbbe)
          04072508003D

 21 20  0     0  0            999 V2000
    2.1799   -1.0045   -0.6105 C   0  0  0  0  0  0  0  0  0  0  0  0
    1.2039   -0.1957    0.2393 C   0  0  0  0  0  0  0  0  0  0  0  0
    1.7876    1.1753    0.5913 C   0  0  0  0  0  0  0  0  0  0  0  0
    0.0030   -0.0602   -0.5146 O   0  0  0  0  0  0  0  0  0  0  0  0
   -1.1990    0.0976    0.2332 C   0  0  0  0  0  0  0  0  0  0  0  0
   -2.1734    0.8821   -0.6409 C   0  0  0  0  0  0  0  0  0  0  0  0
   -1.7839   -1.2624    0.6236 C   0  0  0  0  0  0  0  0  0  0  0  0
    3.1158   -1.1395   -0.0773 H   0  0  0  0  0  0  0  0  0  0  0  0
    1.7537   -1.9768   -0.8416 H   0  0  0  0  0  0  0  0  0  0  0  0
    2.3675   -0.4798   -1.5430 H   0  0  0  0  0  0  0  0  0  0  0  0
    0.9906   -0.7459    1.1686 H   0  0  0  0  0  0  0  0  0  0  0  0
    2.6990    1.0527    1.1685 H   0  0  0  0  0  0  0  0  0  0  0  0
    1.0786    1.7565    1.1766 H   0  0  0  0  0  0  0  0  0  0  0  0
    2.0111    1.7208   -0.3218 H   0  0  0  0  0  0  0  0  0  0  0  0
   -0.9869    0.6742    1.1466 H   0  0  0  0  0  0  0  0  0  0  0  0
   -2.3598    0.3309   -1.5583 H   0  0  0  0  0  0  0  0  0  0  0  0
   -3.1100    1.0328   -0.1133 H   0  0  0  0  0  0  0  0  0  0  0  0
   -1.7463    1.8471   -0.8992 H   0  0  0  0  0  0  0  0  0  0  0  0
   -2.0067   -1.8338   -0.2737 H   0  0  0  0  0  0  0  0  0  0  0  0
   -2.6960   -1.1229    1.1960 H   0  0  0  0  0  0  0  0  0  0  0  0
   -1.0759   -1.8269    1.2262 H   0  0  0  0  0  0  0  0  0  0  0  0
  1  2  1  0  0  0  0
  2  3  1  0  0  0  0
  2  4  1  0  0  0  0
  4  5  1  0  0  0  0
  5  6  1  0  0  0  0
  5  7  1  0  0  0  0
  1  8  1  0  0  0  0
  1  9  1  0  0  0  0
  1 10  1  0  0  0  0
  2 11  1  0  0  0  0
  3 12  1  0  0  0  0
  3 13  1  0  0  0  0
  3 14  1  0  0  0  0
  5 15  1  0  0  0  0
  6 16  1  0  0  0  0
  6 17  1  0  0  0  0
  6 18  1  0  0  0  0
  7 19  1  0  0  0  0
  7 20  1  0  0  0  0
  7 21  1  0  0  0  0
M  END
