 xtb: 6.7.1 (edcfbbe)
          04112512193D

 17 16  0     0  0            999 V2000
   -2.3972    1.1170   -0.1556 C   0  0  0  0  0  0  0  0  0  0  0  0
   -1.8213   -0.1321    0.5067 C   0  0  0  0  0  0  0  0  0  0  0  0
   -0.4450   -0.4829    0.0001 C   0  0  0  0  0  0  0  0  0  0  0  0
   -0.0828   -1.6131   -0.2604 O   0  0  0  0  0  0  0  0  0  0  0  0
    0.3337    0.5822   -0.1214 O   0  0  0  0  0  0  0  0  0  0  0  0
    1.6876    0.3959   -0.5637 C   0  0  0  0  0  0  0  0  0  0  0  0
    2.6121    0.1121    0.6104 C   0  0  0  0  0  0  0  0  0  0  0  0
   -3.3825    1.3246    0.2507 H   0  0  0  0  0  0  0  0  0  0  0  0
   -1.7527    1.9721    0.0249 H   0  0  0  0  0  0  0  0  0  0  0  0
   -2.4876    0.9706   -1.2289 H   0  0  0  0  0  0  0  0  0  0  0  0
   -2.4635   -0.9983    0.3460 H   0  0  0  0  0  0  0  0  0  0  0  0
   -1.7308    0.0329    1.5828 H   0  0  0  0  0  0  0  0  0  0  0  0
    1.7108   -0.4302   -1.2809 H   0  0  0  0  0  0  0  0  0  0  0  0
    1.9479    1.3334   -1.0559 H   0  0  0  0  0  0  0  0  0  0  0  0
    2.5412    0.9105    1.3441 H   0  0  0  0  0  0  0  0  0  0  0  0
    2.3370   -0.8289    1.0818 H   0  0  0  0  0  0  0  0  0  0  0  0
    3.6345    0.0416    0.2541 H   0  0  0  0  0  0  0  0  0  0  0  0
  1  2  1  0  0  0  0
  2  3  1  0  0  0  0
  3  4  2  0  0  0  0
  3  5  1  0  0  0  0
  5  6  1  0  0  0  0
  6  7  1  0  0  0  0
  1  8  1  0  0  0  0
  1  9  1  0  0  0  0
  1 10  1  0  0  0  0
  2 11  1  0  0  0  0
  2 12  1  0  0  0  0
  6 13  1  0  0  0  0
  6 14  1  0  0  0  0
  7 15  1  0  0  0  0
  7 16  1  0  0  0  0
  7 17  1  0  0  0  0
M  END
