 13

C      1.885000    -1.036000    -0.112000
C      2.921000    -1.631000     0.608000
C      2.878000    -1.652000     2.002000
C      1.800000    -1.079000     2.676000
C      0.764000    -0.484000     1.955000
C      0.807000    -0.463000     0.561000
C      1.756000    -1.101000     4.104000
N      1.720000    -1.118000     5.265000
H      1.917000    -1.021000    -1.198000
H      3.761000    -2.078000     0.084000
H      3.693000    -2.119000     2.550000
H     -0.084000    -0.033000     2.466000
H     -0.001000    -0.001000     0.000000
