17
 xtb: 6.7.1 (edcfbbe)
C           -2.30652480968141        0.25466576528490        1.09900560455749
C           -1.81365687156448        0.44330581285366       -0.34334242009989
C           -0.44250834326127       -0.15115819489359       -0.48420749783098
O           -0.22112897346688       -1.33999027657959       -0.65512921798702
O            0.52567028816239        0.77601654702805       -0.35217171034697
C            1.91000065515546        0.29990810632965       -0.34358829926249
C            2.29584217439619       -0.19767281735971        1.03016582175088
H           -2.34578099006662       -0.80660703162711        1.36100575730459
H           -1.64575807644495        0.76379933084277        1.80722237888092
H           -3.31093541884045        0.67267259885798        1.20560418025586
H           -1.78960861634003        1.50454031694997       -0.60116889996714
H           -2.47773140181396       -0.07830418346106       -1.03775009514454
H            2.02335416587939       -0.47065523776302       -1.11006551706367
H            2.49124461377513        1.17853728293175       -0.62929854223598
H            1.69646129874447       -1.06379869956905        1.32374307078348
H            3.34864137533918       -0.49709819252857        1.01920880771786
H            2.17136231463769        0.59132202978507        1.77763064379713
