 xtb: 6.7.1 (edcfbbe)
          04112512353D

 22 22  0     0  0            999 V2000
   -2.8909    0.9683    1.0594 C   0  0  0  0  0  0  0  0  0  0  0  0
   -2.9364   -0.3873    0.3660 C   0  0  0  0  0  0  0  0  0  0  0  0
   -2.0610   -0.4222   -0.8945 C   0  0  0  0  0  0  0  0  0  0  0  0
   -0.6065   -0.2495   -0.5615 C   0  0  0  0  0  0  0  0  0  0  0  0
    0.1225   -1.3047   -0.0237 C   0  0  0  0  0  0  0  0  0  0  0  0
    1.4504   -1.1543    0.3202 C   0  0  0  0  0  0  0  0  0  0  0  0
    2.0845    0.0703    0.1312 C   0  0  0  0  0  0  0  0  0  0  0  0
    1.3681    1.1311   -0.4071 C   0  0  0  0  0  0  0  0  0  0  0  0
    0.0369    0.9658   -0.7468 C   0  0  0  0  0  0  0  0  0  0  0  0
    3.3972    0.1764    0.4841 O   0  0  0  0  0  0  0  0  0  0  0  0
   -3.5225    0.9639    1.9445 H   0  0  0  0  0  0  0  0  0  0  0  0
   -1.8735    1.2054    1.3626 H   0  0  0  0  0  0  0  0  0  0  0  0
   -3.2421    1.7506    0.3902 H   0  0  0  0  0  0  0  0  0  0  0  0
   -3.9666   -0.6171    0.0860 H   0  0  0  0  0  0  0  0  0  0  0  0
   -2.5960   -1.1596    1.0588 H   0  0  0  0  0  0  0  0  0  0  0  0
   -2.3812    0.3703   -1.5732 H   0  0  0  0  0  0  0  0  0  0  0  0
   -2.2065   -1.3815   -1.3959 H   0  0  0  0  0  0  0  0  0  0  0  0
   -0.3564   -2.2613    0.1255 H   0  0  0  0  0  0  0  0  0  0  0  0
    2.0180   -1.9722    0.7360 H   0  0  0  0  0  0  0  0  0  0  0  0
    1.8489    2.0867   -0.5613 H   0  0  0  0  0  0  0  0  0  0  0  0
   -0.5074    1.8003   -1.1643 H   0  0  0  0  0  0  0  0  0  0  0  0
    3.7242    1.0704    0.3040 H   0  0  0  0  0  0  0  0  0  0  0  0
  1  2  1  0  0  0  0
  2  3  1  0  0  0  0
  3  4  1  0  0  0  0
  4  5  4  0  0  0  0
  5  6  4  0  0  0  0
  6  7  4  0  0  0  0
  7  8  4  0  0  0  0
  4  9  4  0  0  0  0
  8  9  4  0  0  0  0
  7 10  1  0  0  0  0
  1 11  1  0  0  0  0
  1 12  1  0  0  0  0
  1 13  1  0  0  0  0
  2 14  1  0  0  0  0
  2 15  1  0  0  0  0
  3 16  1  0  0  0  0
  3 17  1  0  0  0  0
  5 18  1  0  0  0  0
  6 19  1  0  0  0  0
  8 20  1  0  0  0  0
  9 21  1  0  0  0  0
 10 22  1  0  0  0  0
M  END
