17
 xtb: 6.7.1 (edcfbbe)
C           -2.06316011893021       -0.43056030577973       -0.93632361276206
C           -2.05831066876823        0.54103165184518        0.23980073965076
C           -0.84010828764036        0.41290027031919        1.13254464725320
O            0.36777011319901        0.77784401756165        0.39151565731185
C            1.16547575230209       -0.20575416707424       -0.07101878767145
O            0.97051325136355       -1.39370004120255        0.12830900640551
C            2.30557085230101        0.35331794053581       -0.86132109057336
H           -2.96584582496338       -0.29794589322917       -1.54026111121797
H           -1.20176216465311       -0.26702054142883       -1.59290971231484
H           -2.03540985979866       -1.46934989186706       -0.59132184904533
H           -2.93397231196618        0.36583723372639        0.87694622677189
H           -2.13047159125852        1.57425825113460       -0.11993024210745
H           -0.88087118939588        1.12352923129163        1.96119641052665
H           -0.72754720649190       -0.59997577095587        1.52654001528503
H            3.01978463437673       -0.43573245277250       -1.09393532509063
H            2.79450538187349        1.16025736696919       -0.30984400890714
H            1.91600886170519        0.77860807140393       -1.79225846144205
