 xtb: 6.7.1 (edcfbbe)
          04112512153D

 21 20  0     0  0            999 V2000
    2.0800    0.1689   -1.1123 C   0  0  0  0  0  0  0  0  0  0  0  0
    1.6655   -0.5670    0.1562 C   0  0  0  0  0  0  0  0  0  0  0  0
    0.2760   -0.1834    0.6980 C   0  0  0  0  0  0  0  0  0  0  0  0
    0.1258   -0.7851    1.6122 H   0  0  0  0  0  0  0  0  0  0  0  0
   -0.8878   -0.5214   -0.2638 C   0  0  0  0  0  0  0  0  0  0  0  0
   -2.1152   -0.9568    0.5382 C   0  0  0  0  0  0  0  0  0  0  0  0
   -1.2694    0.6512   -1.1659 C   0  0  0  0  0  0  0  0  0  0  0  0
    0.2060    1.1877    1.0449 O   0  0  0  0  0  0  0  0  0  0  0  0
    1.9231    1.2384   -0.9937 H   0  0  0  0  0  0  0  0  0  0  0  0
    1.5062   -0.1769   -1.9674 H   0  0  0  0  0  0  0  0  0  0  0  0
    3.1336   -0.0070   -1.3163 H   0  0  0  0  0  0  0  0  0  0  0  0
    1.6751   -1.6442   -0.0184 H   0  0  0  0  0  0  0  0  0  0  0  0
    2.3971   -0.3559    0.9413 H   0  0  0  0  0  0  0  0  0  0  0  0
   -0.5664   -1.3613   -0.8882 H   0  0  0  0  0  0  0  0  0  0  0  0
   -2.4215   -0.1564    1.2080 H   0  0  0  0  0  0  0  0  0  0  0  0
   -2.9418   -1.1834   -0.1305 H   0  0  0  0  0  0  0  0  0  0  0  0
   -1.8982   -1.8432    1.1302 H   0  0  0  0  0  0  0  0  0  0  0  0
   -0.4329    0.9756   -1.7749 H   0  0  0  0  0  0  0  0  0  0  0  0
   -1.5932    1.4921   -0.5586 H   0  0  0  0  0  0  0  0  0  0  0  0
   -2.0848    0.3566   -1.8223 H   0  0  0  0  0  0  0  0  0  0  0  0
    0.8979    1.3811    1.6905 H   0  0  0  0  0  0  0  0  0  0  0  0
  1  2  1  0  0  0  0
  2  3  1  0  0  0  0
  3  4  1  0  0  0  0
  3  5  1  0  0  0  0
  5  6  1  0  0  0  0
  5  7  1  0  0  0  0
  3  8  1  0  0  0  0
  1  9  1  0  0  0  0
  1 10  1  0  0  0  0
  1 11  1  0  0  0  0
  2 12  1  0  0  0  0
  2 13  1  0  0  0  0
  5 14  1  0  0  0  0
  6 15  1  0  0  0  0
  6 16  1  0  0  0  0
  6 17  1  0  0  0  0
  7 18  1  0  0  0  0
  7 19  1  0  0  0  0
  7 20  1  0  0  0  0
  8 21  1  0  0  0  0
M  END
