  12
 
 C         -3.5390468701       -0.0001231449        0.0001768868
 C         -2.8455563521       -1.1986047566       -0.0000481046
 C         -1.4607938820       -1.2049859023       -0.0001989532
 C         -0.7829396931        0.0001111861       -0.0001665017
 C         -1.4610138047        1.2050722798        0.0000683179
 C         -2.8457800878        1.1984897595        0.0002582291
 I          1.3373908832        0.0003417414       -0.0003730776
 H         -4.6185477627       -0.0002095087        0.0002845756
 H         -3.3801625617       -2.1367790498       -0.0001627842
 H         -0.9198233709       -2.1387570043       -0.0004600481
 H         -0.9202018774        2.1389439478        0.0002041919
 H         -3.3805463490        2.1365662014        0.0004851590
          12
        -19.18803627
 C         -3.5441121129        0.0000160308        0.0000033560
 C         -2.8507393263       -1.1985337185        0.0000079194
 C         -1.4659774816       -1.2050509143        0.0000136273
 C         -0.7880049050       -0.0000204257       -0.0000300721
 C         -1.4659606499        1.2050072923       -0.0000238927
 C         -2.8507275856        1.1985608276        0.0000111008
 I          1.3323256935        0.0000018144        0.0000018046
 H         -4.6236130141        0.0000357245       -0.0000103599
 H         -3.3854376912       -2.1366554976       -0.0000482516
 H         -0.9250986888       -2.1388751792       -0.0000685415
 H         -0.9250569925        2.1388258393        0.0000547148
 H         -3.3854017018        2.1366898185        0.0000592581
