 xtb: 6.7.1 (edcfbbe)
          04112511493D

 17 16  0     0  0            999 V2000
   -2.1699    1.0857    0.5506 C   0  0  0  0  0  0  0  0  0  0  0  0
   -2.0858   -0.2927   -0.0937 C   0  0  0  0  0  0  0  0  0  0  0  0
   -0.8276   -0.4362   -0.9560 C   0  0  0  0  0  0  0  0  0  0  0  0
    0.4143   -0.4154   -0.1037 C   0  0  0  0  0  0  0  0  0  0  0  0
    0.6100   -1.1203    0.8642 O   0  0  0  0  0  0  0  0  0  0  0  0
    1.2931    0.4826   -0.5372 O   0  0  0  0  0  0  0  0  0  0  0  0
    2.5296    0.6022    0.1711 C   0  0  0  0  0  0  0  0  0  0  0  0
   -1.3195    1.2495    1.2100 H   0  0  0  0  0  0  0  0  0  0  0  0
   -2.1709    1.8636   -0.2092 H   0  0  0  0  0  0  0  0  0  0  0  0
   -3.0794    1.1741    1.1385 H   0  0  0  0  0  0  0  0  0  0  0  0
   -2.9625   -0.4588   -0.7200 H   0  0  0  0  0  0  0  0  0  0  0  0
   -2.0659   -1.0603    0.6822 H   0  0  0  0  0  0  0  0  0  0  0  0
   -0.7596    0.3662   -1.6895 H   0  0  0  0  0  0  0  0  0  0  0  0
   -0.8507   -1.3971   -1.4731 H   0  0  0  0  0  0  0  0  0  0  0  0
    3.0005    1.5035   -0.2083 H   0  0  0  0  0  0  0  0  0  0  0  0
    3.1516   -0.2727   -0.0208 H   0  0  0  0  0  0  0  0  0  0  0  0
    2.3408    0.6762    1.2428 H   0  0  0  0  0  0  0  0  0  0  0  0
  1  2  1  0  0  0  0
  2  3  1  0  0  0  0
  3  4  1  0  0  0  0
  4  5  2  0  0  0  0
  4  6  1  0  0  0  0
  6  7  1  0  0  0  0
  1  8  1  0  0  0  0
  1  9  1  0  0  0  0
  1 10  1  0  0  0  0
  2 11  1  0  0  0  0
  2 12  1  0  0  0  0
  3 13  1  0  0  0  0
  3 14  1  0  0  0  0
  7 15  1  0  0  0  0
  7 16  1  0  0  0  0
  7 17  1  0  0  0  0
M  END
