 xtb: 6.7.1 (edcfbbe)
          04112511393D

 29 28  0     0  0            999 V2000
   -3.2240    1.0298    0.0645 C   0  0  0  0  0  0  0  0  0  0  0  0
   -2.1786    0.0000   -0.3637 C   0  0  0  0  0  0  0  0  0  0  0  0
   -2.6022   -1.3909    0.1035 C   0  0  0  0  0  0  0  0  0  0  0  0
   -0.8037    0.3959    0.1890 C   0  0  0  0  0  0  0  0  0  0  0  0
    0.3330   -0.4649   -0.3607 C   0  0  0  0  0  0  0  0  0  0  0  0
    1.7566    0.0038   -0.0041 C   0  0  0  0  0  0  0  0  0  0  0  0
    2.7427   -1.0352   -0.5515 C   0  0  0  0  0  0  0  0  0  0  0  0
    2.0685    1.3580   -0.6462 C   0  0  0  0  0  0  0  0  0  0  0  0
    1.9356    0.1032    1.5127 C   0  0  0  0  0  0  0  0  0  0  0  0
   -3.3002    1.0611    1.1494 H   0  0  0  0  0  0  0  0  0  0  0  0
   -4.2006    0.7750   -0.3404 H   0  0  0  0  0  0  0  0  0  0  0  0
   -2.9550    2.0225   -0.2895 H   0  0  0  0  0  0  0  0  0  0  0  0
   -2.1244   -0.0020   -1.4587 H   0  0  0  0  0  0  0  0  0  0  0  0
   -3.6034   -1.6197   -0.2550 H   0  0  0  0  0  0  0  0  0  0  0  0
   -1.9268   -2.1540   -0.2730 H   0  0  0  0  0  0  0  0  0  0  0  0
   -2.6084   -1.4382    1.1905 H   0  0  0  0  0  0  0  0  0  0  0  0
   -0.6240    1.4400   -0.0726 H   0  0  0  0  0  0  0  0  0  0  0  0
   -0.8317    0.3227    1.2775 H   0  0  0  0  0  0  0  0  0  0  0  0
    0.2478   -0.4989   -1.4503 H   0  0  0  0  0  0  0  0  0  0  0  0
    0.2147   -1.4854    0.0090 H   0  0  0  0  0  0  0  0  0  0  0  0
    2.6314   -1.1380   -1.6287 H   0  0  0  0  0  0  0  0  0  0  0  0
    3.7673   -0.7375   -0.3405 H   0  0  0  0  0  0  0  0  0  0  0  0
    2.5686   -2.0071   -0.0950 H   0  0  0  0  0  0  0  0  0  0  0  0
    1.4414    2.1436   -0.2332 H   0  0  0  0  0  0  0  0  0  0  0  0
    3.1065    1.6276   -0.4642 H   0  0  0  0  0  0  0  0  0  0  0  0
    1.9086    1.3172   -1.7213 H   0  0  0  0  0  0  0  0  0  0  0  0
    1.3272    0.9033    1.9253 H   0  0  0  0  0  0  0  0  0  0  0  0
    2.9758    0.3112    1.7540 H   0  0  0  0  0  0  0  0  0  0  0  0
    1.6533   -0.8312    1.9926 H   0  0  0  0  0  0  0  0  0  0  0  0
  1  2  1  0  0  0  0
  2  3  1  0  0  0  0
  2  4  1  0  0  0  0
  4  5  1  0  0  0  0
  5  6  1  0  0  0  0
  6  7  1  0  0  0  0
  6  8  1  0  0  0  0
  6  9  1  0  0  0  0
  1 10  1  0  0  0  0
  1 11  1  0  0  0  0
  1 12  1  0  0  0  0
  2 13  1  0  0  0  0
  3 14  1  0  0  0  0
  3 15  1  0  0  0  0
  3 16  1  0  0  0  0
  4 17  1  0  0  0  0
  4 18  1  0  0  0  0
  5 19  1  0  0  0  0
  5 20  1  0  0  0  0
  7 21  1  0  0  0  0
  7 22  1  0  0  0  0
  7 23  1  0  0  0  0
  8 24  1  0  0  0  0
  8 25  1  0  0  0  0
  8 26  1  0  0  0  0
  9 27  1  0  0  0  0
  9 28  1  0  0  0  0
  9 29  1  0  0  0  0
M  END
