 xtb: 6.7.1 (edcfbbe)
          04112512063D

 13 12  0     0  0            999 V2000
    2.2619   -0.8446   -0.2902 C   0  0  0  0  0  0  0  0  0  0  0  0
    0.8404   -0.9996   -0.3924 O   0  0  0  0  0  0  0  0  0  0  0  0
    0.0168    0.2441    0.1245 S   0  0  0  0  0  0  0  0  0  0  0  0
    0.1412    1.3380   -0.7876 O   0  0  0  0  0  0  0  0  0  0  0  0
    0.3563    0.4958    1.4961 O   0  0  0  0  0  0  0  0  0  0  0  0
   -1.4276   -0.3122   -0.0058 O   0  0  0  0  0  0  0  0  0  0  0  0
   -1.7705   -1.3734    0.9033 C   0  0  0  0  0  0  0  0  0  0  0  0
    2.6861   -1.8026   -0.5800 H   0  0  0  0  0  0  0  0  0  0  0  0
    2.5149   -0.5905    0.7390 H   0  0  0  0  0  0  0  0  0  0  0  0
    2.5850   -0.0486   -0.9604 H   0  0  0  0  0  0  0  0  0  0  0  0
   -1.3477   -1.1415    1.8799 H   0  0  0  0  0  0  0  0  0  0  0  0
   -1.3633   -2.3088    0.5228 H   0  0  0  0  0  0  0  0  0  0  0  0
   -2.8566   -1.3996    0.9382 H   0  0  0  0  0  0  0  0  0  0  0  0
  1  2  1  0  0  0  0
  2  3  1  0  0  0  0
  3  4  2  0  0  0  0
  3  5  2  0  0  0  0
  3  6  1  0  0  0  0
  6  7  1  0  0  0  0
  1  8  1  0  0  0  0
  1  9  1  0  0  0  0
  1 10  1  0  0  0  0
  7 11  1  0  0  0  0
  7 12  1  0  0  0  0
  7 13  1  0  0  0  0
M  END
