 xtb: 6.7.1 (edcfbbe)
          04112512413D

 21 20  0     0  0            999 V2000
    1.7907   -0.8751    0.7940 C   0  0  0  0  0  0  0  0  0  0  0  0
    1.1720    0.4193    0.2706 C   0  0  0  0  0  0  0  0  0  0  0  0
    0.8375    1.0324    1.1220 H   0  0  0  0  0  0  0  0  0  0  0  0
   -0.0076    0.1714   -0.6754 C   0  0  0  0  0  0  0  0  0  0  0  0
   -1.2096   -0.5655   -0.0781 C   0  0  0  0  0  0  0  0  0  0  0  0
   -1.8192    0.1901    1.1009 C   0  0  0  0  0  0  0  0  0  0  0  0
   -2.2637   -0.7659   -1.1669 C   0  0  0  0  0  0  0  0  0  0  0  0
    2.1161    1.1715   -0.4826 O   0  0  0  0  0  0  0  0  0  0  0  0
    1.0735   -1.4149    1.4040 H   0  0  0  0  0  0  0  0  0  0  0  0
    2.0954   -1.5038   -0.0392 H   0  0  0  0  0  0  0  0  0  0  0  0
    2.6638   -0.6569    1.4055 H   0  0  0  0  0  0  0  0  0  0  0  0
   -0.3309    1.1456   -1.0502 H   0  0  0  0  0  0  0  0  0  0  0  0
    0.3748   -0.3924   -1.5295 H   0  0  0  0  0  0  0  0  0  0  0  0
   -0.8861   -1.5527    0.2665 H   0  0  0  0  0  0  0  0  0  0  0  0
   -2.7250   -0.3093    1.4366 H   0  0  0  0  0  0  0  0  0  0  0  0
   -2.0756    1.2054    0.8065 H   0  0  0  0  0  0  0  0  0  0  0  0
   -1.1288    0.2367    1.9388 H   0  0  0  0  0  0  0  0  0  0  0  0
   -3.1116   -1.3245   -0.7780 H   0  0  0  0  0  0  0  0  0  0  0  0
   -2.6215    0.1958   -1.5277 H   0  0  0  0  0  0  0  0  0  0  0  0
   -1.8475   -1.3143   -2.0085 H   0  0  0  0  0  0  0  0  0  0  0  0
    2.9064    1.3185    0.0542 H   0  0  0  0  0  0  0  0  0  0  0  0
  1  2  1  0  0  0  0
  2  3  1  0  0  0  0
  2  4  1  0  0  0  0
  4  5  1  0  0  0  0
  5  6  1  0  0  0  0
  5  7  1  0  0  0  0
  2  8  1  0  0  0  0
  1  9  1  0  0  0  0
  1 10  1  0  0  0  0
  1 11  1  0  0  0  0
  4 12  1  0  0  0  0
  4 13  1  0  0  0  0
  5 14  1  0  0  0  0
  6 15  1  0  0  0  0
  6 16  1  0  0  0  0
  6 17  1  0  0  0  0
  7 18  1  0  0  0  0
  7 19  1  0  0  0  0
  7 20  1  0  0  0  0
  8 21  1  0  0  0  0
M  END
