  34
 
 C          2.1820000000       -0.5070000000       -0.4910000000
 C          0.7670000000       -0.6300000000        0.0320000000
 O          0.5070000000       -1.9880000000        0.3460000000
 P         -0.9520000000       -2.4350000000        0.9360000000
 S         -2.4090000000       -2.0110000000       -0.3080000000
 O         -0.6710000000       -4.0430000000        1.0400000000
 C         -1.6800000000       -4.9160000000        1.5200000000
 C         -1.1510000000       -6.3350000000        1.5090000000
 S         -1.0650000000       -1.6990000000        2.9280000000
 C          0.3130000000       -2.4840000000        3.8030000000
 S          0.3960000000       -1.9800000000        5.5490000000
 C          1.8220000000       -2.9070000000        6.1020000000
 C          2.2480000000       -2.8070000000        7.4270000000
 C          3.3600000000       -3.5310000000        7.8580000000
 C          4.0460000000       -4.3540000000        6.9650000000
 C          3.6190000000       -4.4540000000        5.6410000000
 C          2.5070000000       -3.7310000000        5.2090000000
 Cl         5.4170000000       -5.2470000000        7.4970000000
 H          2.4170000000        0.5310000000       -0.7430000000
 H          2.9010000000       -0.8600000000        0.2560000000
 H          2.3200000000       -1.1270000000       -1.3830000000
 H          0.0490000000       -0.2990000000       -0.7250000000
 H          0.6370000000       -0.0280000000        0.9360000000
 H         -1.9520000000       -4.6170000000        2.5370000000
 H         -2.5600000000       -4.8300000000        0.8750000000
 H         -1.9060000000       -7.0370000000        1.8750000000
 H         -0.8570000000       -6.6290000000        0.4960000000
 H         -0.2580000000       -6.4190000000        2.1370000000
 H          1.2540000000       -2.2710000000        3.2900000000
 H          0.1620000000       -3.5670000000        3.7740000000
 H          1.7270000000       -2.1710000000        8.1370000000
 H          3.6810000000       -3.4430000000        8.8930000000
 H          4.1440000000       -5.0920000000        4.9340000000
 H          2.1900000000       -3.8220000000        4.1730000000
