 xtb: 6.7.1 (edcfbbe)
          04112511563D

 21 21  0     0  0            999 V2000
   -3.6309    1.0395   -0.1923 C   0  0  0  0  0  0  0  0  0  0  0  0
   -2.2951    1.4779   -0.0119 O   0  0  0  0  0  0  0  0  0  0  0  0
   -1.2387    0.6357    0.0102 C   0  0  0  0  0  0  0  0  0  0  0  0
   -1.1835   -0.7538   -0.0731 C   0  0  0  0  0  0  0  0  0  0  0  0
    0.0293   -1.4286   -0.0124 C   0  0  0  0  0  0  0  0  0  0  0  0
    1.2189   -0.7420    0.1181 C   0  0  0  0  0  0  0  0  0  0  0  0
    1.2209    0.6503    0.1730 C   0  0  0  0  0  0  0  0  0  0  0  0
   -0.0071    1.3175    0.1346 C   0  0  0  0  0  0  0  0  0  0  0  0
   -0.0472    2.6619    0.2232 O   0  0  0  0  0  0  0  0  0  0  0  0
    2.3266    1.4555    0.3174 O   0  0  0  0  0  0  0  0  0  0  0  0
    3.3451    1.3551   -0.6780 C   0  0  0  0  0  0  0  0  0  0  0  0
    2.6799   -1.6636    0.2613 Cl  0  0  0  0  0  0  0  0  0  0  0  0
   -2.5836   -1.7750   -0.2331 Cl  0  0  0  0  0  0  0  0  0  0  0  0
   -4.2141    1.9582   -0.1983 H   0  0  0  0  0  0  0  0  0  0  0  0
   -3.9593    0.4036    0.6309 H   0  0  0  0  0  0  0  0  0  0  0  0
   -3.7576    0.5189   -1.1424 H   0  0  0  0  0  0  0  0  0  0  0  0
    0.0355   -2.5050   -0.0588 H   0  0  0  0  0  0  0  0  0  0  0  0
    0.8634    2.9927    0.3424 H   0  0  0  0  0  0  0  0  0  0  0  0
    2.9164    1.4568   -1.6770 H   0  0  0  0  0  0  0  0  0  0  0  0
    3.8886    0.4134   -0.6082 H   0  0  0  0  0  0  0  0  0  0  0  0
    4.0202    2.1821   -0.4734 H   0  0  0  0  0  0  0  0  0  0  0  0
  1  2  1  0  0  0  0
  2  3  1  0  0  0  0
  3  4  4  0  0  0  0
  4  5  4  0  0  0  0
  5  6  4  0  0  0  0
  6  7  4  0  0  0  0
  3  8  4  0  0  0  0
  7  8  4  0  0  0  0
  8  9  1  0  0  0  0
  7 10  1  0  0  0  0
 10 11  1  0  0  0  0
  6 12  1  0  0  0  0
  4 13  1  0  0  0  0
  1 14  1  0  0  0  0
  1 15  1  0  0  0  0
  1 16  1  0  0  0  0
  5 17  1  0  0  0  0
  9 18  1  0  0  0  0
 11 19  1  0  0  0  0
 11 20  1  0  0  0  0
 11 21  1  0  0  0  0
M  END
