 xtb: 6.7.1 (edcfbbe)
          04112512203D

 18 17  0     0  0            999 V2000
   -2.3590    0.7224   -0.0123 C   0  0  0  0  0  0  0  0  0  0  0  0
   -0.8449    0.8955   -0.0049 C   0  0  0  0  0  0  0  0  0  0  0  0
   -0.0918   -0.3331    0.5171 C   0  0  0  0  0  0  0  0  0  0  0  0
   -0.4328   -0.5485    1.5355 H   0  0  0  0  0  0  0  0  0  0  0  0
   -0.3329   -1.5683   -0.3512 C   0  0  0  0  0  0  0  0  0  0  0  0
    1.4107   -0.0203    0.6178 C   0  0  0  0  0  0  0  0  0  0  0  0
    2.0093    0.3359   -0.6091 O   0  0  0  0  0  0  0  0  0  0  0  0
   -2.8387    1.6575   -0.2908 H   0  0  0  0  0  0  0  0  0  0  0  0
   -2.6643   -0.0390   -0.7245 H   0  0  0  0  0  0  0  0  0  0  0  0
   -2.7133    0.4361    0.9756 H   0  0  0  0  0  0  0  0  0  0  0  0
   -0.5885    1.7483    0.6283 H   0  0  0  0  0  0  0  0  0  0  0  0
   -0.4942    1.1237   -1.0136 H   0  0  0  0  0  0  0  0  0  0  0  0
    0.3231   -2.3805   -0.0446 H   0  0  0  0  0  0  0  0  0  0  0  0
   -0.1536   -1.3433   -1.4002 H   0  0  0  0  0  0  0  0  0  0  0  0
   -1.3588   -1.9094   -0.2495 H   0  0  0  0  0  0  0  0  0  0  0  0
    1.9360   -0.8799    1.0573 H   0  0  0  0  0  0  0  0  0  0  0  0
    1.5646    0.8428    1.2709 H   0  0  0  0  0  0  0  0  0  0  0  0
    1.9555   -0.4207   -1.2090 H   0  0  0  0  0  0  0  0  0  0  0  0
  1  2  1  0  0  0  0
  2  3  1  0  0  0  0
  3  4  1  0  0  0  0
  3  5  1  0  0  0  0
  3  6  1  0  0  0  0
  6  7  1  0  0  0  0
  1  8  1  0  0  0  0
  1  9  1  0  0  0  0
  1 10  1  0  0  0  0
  2 11  1  0  0  0  0
  2 12  1  0  0  0  0
  5 13  1  0  0  0  0
  5 14  1  0  0  0  0
  5 15  1  0  0  0  0
  6 16  1  0  0  0  0
  6 17  1  0  0  0  0
  7 18  1  0  0  0  0
M  END
