 15

C      1.885000    -1.036000    -0.112000
C      2.921000    -1.631000     0.608000
C      2.878000    -1.652000     2.002000
C      1.800000    -1.079000     2.676000
C      0.764000    -0.484000     1.955000
C      0.807000    -0.463000     0.561000
O      1.759000    -1.098000     4.036000
C      2.360000     0.015000     4.633000
O      2.892000     0.956000     4.066000
H      1.918000    -1.021000    -1.198000
H      3.760000    -2.077000     0.083000
H      3.689000    -2.115000     2.558000
H     -0.079000    -0.035000     2.474000
H     -0.000000     0.000000     0.000000
H      2.280000    -0.085000     5.727000
