  10
 
 C         -1.8521880567       -0.0052094869       -0.4386912527
 C         -0.8269234175        0.0092036018        0.6909133280
 N          0.5190403487        0.0002829231        0.0865691743
 O          1.0196619012        1.0697813276       -0.1593876543
 O          1.0104460981       -1.0761939128       -0.1473123889
 H         -2.8558947170        0.0005826219       -0.0233495389
 H         -1.7309724207        0.8720390430       -1.0701824370
 H         -1.7313969138       -0.8988762533       -1.0468100622
 H         -0.9252935443       -0.8825190215        1.3114446570
 H         -0.9239803515        0.9169038968        1.2880015366
          10
        -17.78937180
 C         -1.9439801135        0.0577479139        0.0004357124
 C         -0.6905180950       -0.7929367529       -0.0005878449
 N          0.5400312367        0.0309278960       -0.0001675062
 O          0.4261919901        1.2297057720       -0.0001882801
 O          1.5852689619       -0.5748402312        0.0004283108
 H         -1.9743936999        0.6950064630       -0.8793734019
 H         -2.8210394762       -0.5831014355        0.0009960156
 H         -1.9732388862        0.6942194754        0.8809298918
 H         -0.6358018565       -1.4343827338       -0.8840542296
 H         -0.6352779375       -1.4357365577        0.8818322384
