 10

C      0.239000     0.240000     1.042000
C      1.126000    -0.817000     1.664000
N      2.377000    -0.904000     0.908000
O      3.325000    -0.175000     1.263000
O      2.424000    -1.688000    -0.062000
H     -0.710000     0.335000     1.582000
H      0.725000     1.223000     1.045000
H      0.011000    -0.021000     0.003000
H      0.654000    -1.802000     1.632000
H      1.384000    -0.569000     2.697000
