 xtb: 6.7.1 (edcfbbe)
          04112512153D

 21 20  0     0  0            999 V2000
    1.7905   -0.8269    1.2043 C   0  0  0  0  0  0  0  0  0  0  0  0
    1.4740   -0.2467   -0.1670 C   0  0  0  0  0  0  0  0  0  0  0  0
    0.2866    0.7230   -0.2121 C   0  0  0  0  0  0  0  0  0  0  0  0
    0.4535    1.5024    0.5514 H   0  0  0  0  0  0  0  0  0  0  0  0
   -1.1211    0.1266    0.0175 C   0  0  0  0  0  0  0  0  0  0  0  0
   -1.3310   -1.1880   -0.7301 C   0  0  0  0  0  0  0  0  0  0  0  0
   -1.4715   -0.0185    1.4971 C   0  0  0  0  0  0  0  0  0  0  0  0
    0.3605    1.3244   -1.5005 O   0  0  0  0  0  0  0  0  0  0  0  0
    2.7653   -1.3075    1.1785 H   0  0  0  0  0  0  0  0  0  0  0  0
    1.0583   -1.5727    1.4987 H   0  0  0  0  0  0  0  0  0  0  0  0
    1.8134   -0.0430    1.9574 H   0  0  0  0  0  0  0  0  0  0  0  0
    2.3338    0.3281   -0.5200 H   0  0  0  0  0  0  0  0  0  0  0  0
    1.3078   -1.0449   -0.8897 H   0  0  0  0  0  0  0  0  0  0  0  0
   -1.8213    0.8599   -0.4058 H   0  0  0  0  0  0  0  0  0  0  0  0
   -1.0169   -1.0838   -1.7662 H   0  0  0  0  0  0  0  0  0  0  0  0
   -0.7638   -1.9922   -0.2695 H   0  0  0  0  0  0  0  0  0  0  0  0
   -2.3837   -1.4605   -0.7133 H   0  0  0  0  0  0  0  0  0  0  0  0
   -1.3049    0.9175    2.0253 H   0  0  0  0  0  0  0  0  0  0  0  0
   -0.8776   -0.7918    1.9723 H   0  0  0  0  0  0  0  0  0  0  0  0
   -2.5207   -0.2866    1.5978 H   0  0  0  0  0  0  0  0  0  0  0  0
   -0.3248    2.0012   -1.5805 H   0  0  0  0  0  0  0  0  0  0  0  0
  1  2  1  0  0  0  0
  2  3  1  0  0  0  0
  3  4  1  0  0  0  0
  3  5  1  0  0  0  0
  5  6  1  0  0  0  0
  5  7  1  0  0  0  0
  3  8  1  0  0  0  0
  1  9  1  0  0  0  0
  1 10  1  0  0  0  0
  1 11  1  0  0  0  0
  2 12  1  0  0  0  0
  2 13  1  0  0  0  0
  5 14  1  0  0  0  0
  6 15  1  0  0  0  0
  6 16  1  0  0  0  0
  6 17  1  0  0  0  0
  7 18  1  0  0  0  0
  7 19  1  0  0  0  0
  7 20  1  0  0  0  0
  8 21  1  0  0  0  0
M  END
