 xtb: 6.7.1 (edcfbbe)
          04112512423D

 17 16  0     0  0            999 V2000
   -2.2708    0.3813   -1.0540 C   0  0  0  0  0  0  0  0  0  0  0  0
   -1.8285    0.3799    0.4126 C   0  0  0  0  0  0  0  0  0  0  0  0
   -0.4468   -0.2130    0.5073 C   0  0  0  0  0  0  0  0  0  0  0  0
   -0.2092   -1.3864    0.7071 O   0  0  0  0  0  0  0  0  0  0  0  0
    0.4898    0.7074    0.3202 O   0  0  0  0  0  0  0  0  0  0  0  0
    1.8662    0.2940    0.3028 C   0  0  0  0  0  0  0  0  0  0  0  0
    2.2923   -0.1277   -1.0951 C   0  0  0  0  0  0  0  0  0  0  0  0
   -1.5987    0.9935   -1.6496 H   0  0  0  0  0  0  0  0  0  0  0  0
   -2.2663   -0.6317   -1.4495 H   0  0  0  0  0  0  0  0  0  0  0  0
   -3.2761    0.7835   -1.1331 H   0  0  0  0  0  0  0  0  0  0  0  0
   -2.5082   -0.2294    1.0070 H   0  0  0  0  0  0  0  0  0  0  0  0
   -1.8023    1.3996    0.7935 H   0  0  0  0  0  0  0  0  0  0  0  0
    2.4217    1.1695    0.6404 H   0  0  0  0  0  0  0  0  0  0  0  0
    1.9908   -0.5319    1.0097 H   0  0  0  0  0  0  0  0  0  0  0  0
    3.3480   -0.3781   -1.0892 H   0  0  0  0  0  0  0  0  0  0  0  0
    1.7243   -1.0004   -1.4099 H   0  0  0  0  0  0  0  0  0  0  0  0
    2.1191    0.6812   -1.7997 H   0  0  0  0  0  0  0  0  0  0  0  0
  1  2  1  0  0  0  0
  2  3  1  0  0  0  0
  3  4  2  0  0  0  0
  3  5  1  0  0  0  0
  5  6  1  0  0  0  0
  6  7  1  0  0  0  0
  1  8  1  0  0  0  0
  1  9  1  0  0  0  0
  1 10  1  0  0  0  0
  2 11  1  0  0  0  0
  2 12  1  0  0  0  0
  6 13  1  0  0  0  0
  6 14  1  0  0  0  0
  7 15  1  0  0  0  0
  7 16  1  0  0  0  0
  7 17  1  0  0  0  0
M  END
