17
 xtb: 6.7.1 (edcfbbe)
C           -2.30473388318935        0.36581803695106       -1.05176041694484
C           -1.81127151471274        0.40001708200643        0.40232126060551
C           -0.43722089199742       -0.19978733812304        0.47733626148725
O           -0.20999019076377       -1.39783637486054        0.54373578127097
O            0.52652487065234        0.73925760123780        0.41344192250297
C            1.91169763910464        0.27078359498512        0.34304693075195
C            2.27843198684381       -0.09896828784590       -1.07565069858765
H           -3.31021429518465        0.79037460796265       -1.11205131236184
H           -1.64600656941110        0.94965290410452       -1.70172782769696
H           -2.34169724393302       -0.66131947542663       -1.42605968627053
H           -2.47250267789178       -0.19551482452854        1.03713825489892
H           -1.79094637190028        1.42780730362091        0.77202776711549
H            2.49513503626404        1.12187849242270        0.69895737368276
H            2.03716123758005       -0.56580441393456        1.03469628241515
H            3.33169753056971       -0.39517086540984       -1.10719900450947
H            1.67595303768951       -0.93656096988395       -1.43771349570770
H            2.14138214533429        0.75431656505576       -1.74627360461922
