 xtb: 6.7.1 (edcfbbe)
          04112512403D

 18 17  0     0  0            999 V2000
   -1.8197    0.9121   -0.5695 C   0  0  0  0  0  0  0  0  0  0  0  0
   -0.9361    0.6296    0.6411 C   0  0  0  0  0  0  0  0  0  0  0  0
    0.0493   -0.5368    0.4735 C   0  0  0  0  0  0  0  0  0  0  0  0
    0.5219   -0.6943    1.4499 H   0  0  0  0  0  0  0  0  0  0  0  0
   -0.6376   -1.8307    0.0450 C   0  0  0  0  0  0  0  0  0  0  0  0
    1.1780   -0.1874   -0.5012 C   0  0  0  0  0  0  0  0  0  0  0  0
    1.9286    0.8907    0.0241 O   0  0  0  0  0  0  0  0  0  0  0  0
   -2.4435    1.7800   -0.3692 H   0  0  0  0  0  0  0  0  0  0  0  0
   -1.2223    1.1247   -1.4520 H   0  0  0  0  0  0  0  0  0  0  0  0
   -2.4706    0.0690   -0.7833 H   0  0  0  0  0  0  0  0  0  0  0  0
   -1.5759    0.4152    1.4999 H   0  0  0  0  0  0  0  0  0  0  0  0
   -0.3518    1.5215    0.8768 H   0  0  0  0  0  0  0  0  0  0  0  0
   -0.9971   -1.7561   -0.9777 H   0  0  0  0  0  0  0  0  0  0  0  0
   -1.4801   -2.0396    0.6987 H   0  0  0  0  0  0  0  0  0  0  0  0
    0.0577   -2.6647    0.1015 H   0  0  0  0  0  0  0  0  0  0  0  0
    0.7607    0.0777   -1.4807 H   0  0  0  0  0  0  0  0  0  0  0  0
    1.8233   -1.0678   -0.6292 H   0  0  0  0  0  0  0  0  0  0  0  0
    2.6333    1.1207   -0.5951 H   0  0  0  0  0  0  0  0  0  0  0  0
  1  2  1  0  0  0  0
  2  3  1  0  0  0  0
  3  4  1  0  0  0  0
  3  5  1  0  0  0  0
  3  6  1  0  0  0  0
  6  7  1  0  0  0  0
  1  8  1  0  0  0  0
  1  9  1  0  0  0  0
  1 10  1  0  0  0  0
  2 11  1  0  0  0  0
  2 12  1  0  0  0  0
  5 13  1  0  0  0  0
  5 14  1  0  0  0  0
  5 15  1  0  0  0  0
  6 16  1  0  0  0  0
  6 17  1  0  0  0  0
  7 18  1  0  0  0  0
M  END
