 xtb: 6.7.1 (edcfbbe)
          04112511103D

 18 17  0     0  0            999 V2000
    2.2543   -1.0341    0.2717 C   0  0  0  0  0  0  0  0  0  0  0  0
    1.6242    0.0864   -0.5498 C   0  0  0  0  0  0  0  0  0  0  0  0
    0.4405    0.7632    0.1544 C   0  0  0  0  0  0  0  0  0  0  0  0
   -0.9382    0.2588   -0.2969 C   0  0  0  0  0  0  0  0  0  0  0  0
   -1.0208    0.3689   -1.3849 H   0  0  0  0  0  0  0  0  0  0  0  0
   -1.2005   -1.1961    0.0857 C   0  0  0  0  0  0  0  0  0  0  0  0
   -1.9600    1.1063    0.2090 O   0  0  0  0  0  0  0  0  0  0  0  0
    3.0838   -1.4776   -0.2743 H   0  0  0  0  0  0  0  0  0  0  0  0
    1.5342   -1.8161    0.4931 H   0  0  0  0  0  0  0  0  0  0  0  0
    2.6364   -0.6430    1.2120 H   0  0  0  0  0  0  0  0  0  0  0  0
    2.3928    0.8356   -0.7487 H   0  0  0  0  0  0  0  0  0  0  0  0
    1.2968   -0.3045   -1.5151 H   0  0  0  0  0  0  0  0  0  0  0  0
    0.5330    0.6289    1.2347 H   0  0  0  0  0  0  0  0  0  0  0  0
    0.4599    1.8367   -0.0470 H   0  0  0  0  0  0  0  0  0  0  0  0
   -2.2327   -1.4501   -0.1453 H   0  0  0  0  0  0  0  0  0  0  0  0
   -0.5487   -1.8570   -0.4760 H   0  0  0  0  0  0  0  0  0  0  0  0
   -1.0314   -1.3469    1.1499 H   0  0  0  0  0  0  0  0  0  0  0  0
   -1.9722    1.0328    1.1738 H   0  0  0  0  0  0  0  0  0  0  0  0
  1  2  1  0  0  0  0
  2  3  1  0  0  0  0
  3  4  1  0  0  0  0
  4  5  1  0  0  0  0
  4  6  1  0  0  0  0
  4  7  1  0  0  0  0
  1  8  1  0  0  0  0
  1  9  1  0  0  0  0
  1 10  1  0  0  0  0
  2 11  1  0  0  0  0
  2 12  1  0  0  0  0
  3 13  1  0  0  0  0
  3 14  1  0  0  0  0
  6 15  1  0  0  0  0
  6 16  1  0  0  0  0
  6 17  1  0  0  0  0
  7 18  1  0  0  0  0
M  END
