 18

C      1.885000    -1.036000    -0.112000
C      2.921000    -1.631000     0.608000
C      2.878000    -1.652000     2.002000
C      1.800000    -1.079000     2.676000
C      0.764000    -0.484000     1.955000
C      0.807000    -0.463000     0.561000
C     -0.401000     0.137000     2.654000
F     -0.328000     0.053000     4.015000
F     -0.552000     1.466000     2.385000
F     -1.587000    -0.446000     2.313000
C      1.776000    -1.113000     4.168000
F      2.863000    -1.730000     4.717000
F      1.741000     0.125000     4.742000
F      0.690000    -1.777000     4.659000
H      1.918000    -1.021000    -1.198000
H      3.760000    -2.078000     0.084000
H      3.690000    -2.118000     2.554000
H      0.004000    -0.002000    -0.010000
