  18
 
 C          1.8850000000       -1.0360000000       -0.1120000000
 C          2.9210000000       -1.6310000000        0.6080000000
 C          2.8780000000       -1.6520000000        2.0020000000
 C          1.8000000000       -1.0790000000        2.6760000000
 C          0.7640000000       -0.4840000000        1.9550000000
 C          0.8070000000       -0.4630000000        0.5610000000
 C         -0.4010000000        0.1370000000        2.6540000000
 F         -0.3280000000        0.0530000000        4.0150000000
 F         -0.5520000000        1.4660000000        2.3850000000
 F         -1.5870000000       -0.4460000000        2.3130000000
 C          1.7760000000       -1.1130000000        4.1680000000
 F          2.8630000000       -1.7300000000        4.7170000000
 F          1.7410000000        0.1250000000        4.7420000000
 F          0.6900000000       -1.7770000000        4.6590000000
 H          1.9180000000       -1.0210000000       -1.1980000000
 H          3.7600000000       -2.0780000000        0.0840000000
 H          3.6900000000       -2.1180000000        2.5540000000
 H          0.0040000000       -0.0020000000       -0.0100000000
