 xtb: 6.7.1 (edcfbbe)
          04112512423D

 17 16  0     0  0            999 V2000
   -2.3295    0.1938    1.0620 C   0  0  0  0  0  0  0  0  0  0  0  0
   -1.8104    0.4825   -0.3499 C   0  0  0  0  0  0  0  0  0  0  0  0
   -0.4465   -0.1378   -0.5080 C   0  0  0  0  0  0  0  0  0  0  0  0
   -0.2449   -1.3010   -0.7900 O   0  0  0  0  0  0  0  0  0  0  0  0
    0.5184    0.7427   -0.2775 O   0  0  0  0  0  0  0  0  0  0  0  0
    1.8836    0.2945   -0.3194 C   0  0  0  0  0  0  0  0  0  0  0  0
    2.3306   -0.2203    1.0402 C   0  0  0  0  0  0  0  0  0  0  0  0
   -1.6758    0.6430    1.8052 H   0  0  0  0  0  0  0  0  0  0  0  0
   -3.3273    0.6059    1.1773 H   0  0  0  0  0  0  0  0  0  0  0  0
   -2.3699   -0.8793    1.2339 H   0  0  0  0  0  0  0  0  0  0  0  0
   -1.7313    1.5565   -0.5096 H   0  0  0  0  0  0  0  0  0  0  0  0
   -2.4793    0.0380   -1.0861 H   0  0  0  0  0  0  0  0  0  0  0  0
    1.9690   -0.4908   -1.0767 H   0  0  0  0  0  0  0  0  0  0  0  0
    2.4545    1.1740   -0.6186 H   0  0  0  0  0  0  0  0  0  0  0  0
    3.3784   -0.4983    0.9929 H   0  0  0  0  0  0  0  0  0  0  0  0
    2.1972    0.5502    1.7947 H   0  0  0  0  0  0  0  0  0  0  0  0
    1.7457   -1.0944    1.3179 H   0  0  0  0  0  0  0  0  0  0  0  0
  1  2  1  0  0  0  0
  2  3  1  0  0  0  0
  3  4  2  0  0  0  0
  3  5  1  0  0  0  0
  5  6  1  0  0  0  0
  6  7  1  0  0  0  0
  1  8  1  0  0  0  0
  1  9  1  0  0  0  0
  1 10  1  0  0  0  0
  2 11  1  0  0  0  0
  2 12  1  0  0  0  0
  6 13  1  0  0  0  0
  6 14  1  0  0  0  0
  7 15  1  0  0  0  0
  7 16  1  0  0  0  0
  7 17  1  0  0  0  0
M  END
