 31

C      5.072000    -3.741000    -0.452000
C      3.732000    -4.021000    -1.142000
C      2.686000    -4.583000    -0.150000
C      1.859000    -3.375000     0.064000
C      0.832000    -3.165000     0.968000
C      0.167000    -1.937000     0.940000
C      0.530000    -0.949000     0.010000
C      1.563000    -1.177000    -0.901000
C      2.212000    -2.396000    -0.849000
O      3.239000    -2.759000    -1.679000
O      1.913000    -0.226000    -1.802000
C      2.909000     0.674000    -1.366000
O      3.434000     0.618000    -0.258000
N      3.196000     1.603000    -2.345000
C      4.177000     2.652000    -2.187000
C      3.942000    -4.973000    -2.321000
H      5.487000    -4.662000    -0.029000
H      5.795000    -3.333000    -1.165000
H      4.943000    -3.018000     0.359000
H      2.075000    -5.374000    -0.597000
H      3.138000    -4.954000     0.775000
H      0.544000    -3.932000     1.678000
H     -0.642000    -1.745000     1.640000
H     -0.004000    -0.002000     0.004000
H      2.691000     1.546000    -3.224000
H      5.152000     2.298000    -2.524000
H      4.244000     2.942000    -1.138000
H      3.888000     3.521000    -2.779000
H      2.989000    -5.170000    -2.808000
H      4.362000    -5.911000    -1.965000
H      4.625000    -4.524000    -3.038000
