  31
 
 C          5.0720000000       -3.7410000000       -0.4520000000
 C          3.7320000000       -4.0210000000       -1.1420000000
 C          2.6860000000       -4.5830000000       -0.1500000000
 C          1.8590000000       -3.3750000000        0.0640000000
 C          0.8320000000       -3.1650000000        0.9680000000
 C          0.1670000000       -1.9370000000        0.9400000000
 C          0.5300000000       -0.9490000000        0.0100000000
 C          1.5630000000       -1.1770000000       -0.9010000000
 C          2.2120000000       -2.3960000000       -0.8490000000
 O          3.2390000000       -2.7590000000       -1.6790000000
 O          1.9130000000       -0.2260000000       -1.8020000000
 C          2.9090000000        0.6740000000       -1.3660000000
 O          3.4340000000        0.6180000000       -0.2580000000
 N          3.1960000000        1.6030000000       -2.3450000000
 C          4.1770000000        2.6520000000       -2.1870000000
 C          3.9420000000       -4.9730000000       -2.3210000000
 H          5.4870000000       -4.6620000000       -0.0290000000
 H          5.7950000000       -3.3330000000       -1.1650000000
 H          4.9430000000       -3.0180000000        0.3590000000
 H          2.0750000000       -5.3740000000       -0.5970000000
 H          3.1380000000       -4.9540000000        0.7750000000
 H          0.5440000000       -3.9320000000        1.6780000000
 H         -0.6420000000       -1.7450000000        1.6400000000
 H         -0.0040000000       -0.0020000000        0.0040000000
 H          2.6910000000        1.5460000000       -3.2240000000
 H          5.1520000000        2.2980000000       -2.5240000000
 H          4.2440000000        2.9420000000       -1.1380000000
 H          3.8880000000        3.5210000000       -2.7790000000
 H          2.9890000000       -5.1700000000       -2.8080000000
 H          4.3620000000       -5.9110000000       -1.9650000000
 H          4.6250000000       -4.5240000000       -3.0380000000
