 xtb: 6.7.1 (edcfbbe)
          04112511033D

 20 20  0     0  0            999 V2000
    1.5279   -2.2632   -0.0015 C   0  0  0  0  0  0  0  0  0  0  0  0
    1.8440   -0.8834    0.0011 O   0  0  0  0  0  0  0  0  0  0  0  0
    0.8751    0.0842    0.0005 C   0  0  0  0  0  0  0  0  0  0  0  0
    1.3829    1.3804    0.0005 C   0  0  0  0  0  0  0  0  0  0  0  0
    0.5548    2.4857    0.0001 C   0  0  0  0  0  0  0  0  0  0  0  0
   -0.8142    2.3042   -0.0004 C   0  0  0  0  0  0  0  0  0  0  0  0
   -1.3393    1.0236   -0.0004 C   0  0  0  0  0  0  0  0  0  0  0  0
   -0.5197   -0.0993    0.0002 C   0  0  0  0  0  0  0  0  0  0  0  0
   -1.0123   -1.3840    0.0005 O   0  0  0  0  0  0  0  0  0  0  0  0
   -2.4126   -1.5768   -0.0004 C   0  0  0  0  0  0  0  0  0  0  0  0
    0.9662   -2.5431   -0.8940 H   0  0  0  0  0  0  0  0  0  0  0  0
    0.9643   -2.5461    0.8888 H   0  0  0  0  0  0  0  0  0  0  0  0
    2.4941   -2.7650   -0.0013 H   0  0  0  0  0  0  0  0  0  0  0  0
    2.4562    1.4852    0.0009 H   0  0  0  0  0  0  0  0  0  0  0  0
    0.9803    3.4763    0.0002 H   0  0  0  0  0  0  0  0  0  0  0  0
   -1.4820    3.1509   -0.0008 H   0  0  0  0  0  0  0  0  0  0  0  0
   -2.4098    0.9025   -0.0008 H   0  0  0  0  0  0  0  0  0  0  0  0
   -2.5467   -2.6564   -0.0001 H   0  0  0  0  0  0  0  0  0  0  0  0
   -2.8721   -1.1508   -0.8961 H   0  0  0  0  0  0  0  0  0  0  0  0
   -2.8733   -1.1500    0.8943 H   0  0  0  0  0  0  0  0  0  0  0  0
  1  2  1  0  0  0  0
  2  3  1  0  0  0  0
  3  4  4  0  0  0  0
  4  5  4  0  0  0  0
  5  6  4  0  0  0  0
  6  7  4  0  0  0  0
  3  8  4  0  0  0  0
  7  8  4  0  0  0  0
  8  9  1  0  0  0  0
  9 10  1  0  0  0  0
  1 11  1  0  0  0  0
  1 12  1  0  0  0  0
  1 13  1  0  0  0  0
  4 14  1  0  0  0  0
  5 15  1  0  0  0  0
  6 16  1  0  0  0  0
  7 17  1  0  0  0  0
 10 18  1  0  0  0  0
 10 19  1  0  0  0  0
 10 20  1  0  0  0  0
M  END
