  7
 
 C          1.3784903946        0.0097364320        0.0111542090
 N         -0.0892841461       -0.0010066988        0.0059618494
 O         -0.6319456462       -1.0774312942       -0.0045275439
 O         -0.6473469016        1.0675416095       -0.0043075216
 H          1.7219553605        0.0212980187       -1.0238770665
 H          1.7450218880       -0.8918888297        0.4967861877
 H          1.7316573938        0.9086431025        0.5115813529
           7
        -14.62285389
 C          1.3778629098       -0.0002267806        0.0019933908
 N         -0.0906294885       -0.0000185652        0.0054607222
 O         -0.6413107786       -1.0723057778       -0.0016056546
 O         -0.6409592306        1.0724975871       -0.0016133638
 H          1.7148299517        0.0071000866       -1.0350227056
 H          1.7398013265       -0.9038862154        0.4871109083
 H          1.7397922102        0.8967018611        0.4993683394
