  7
 
 C         -0.5250000000       -0.7550000000        0.5870000000
 N         -1.8330000000       -0.9730000000       -0.0160000000
 O         -2.4130000000       -2.0590000000        0.2080000000
 O         -2.3090000000       -0.0740000000       -0.7440000000
 H          0.2340000000       -1.1190000000       -0.1070000000
 H         -0.4860000000       -1.3090000000        1.5270000000
 H         -0.4050000000        0.3150000000        0.7650000000
