  22
 
 C          4.1658726100        0.6048566919       -0.1491496918
 C          3.0148897056       -0.3029258182        0.2648727701
 C          1.6711524468        0.2349748639       -0.2181846031
 C          0.5137739446       -0.6615151545        0.2056257385
 O         -0.6879765734       -0.1109727414       -0.2802949634
 C         -1.8232729162       -0.8616237935        0.0691055799
 C         -3.0705835427       -0.1126578190       -0.3895606226
 O         -3.4419120054        0.8071135156        0.6114329389
 H          5.1145092805        0.2017726511        0.1977227560
 H          4.2068745314        0.6981912375       -1.2317219374
 H          4.0389521976        1.5979431300        0.2747445938
 H          3.1730801729       -1.3019152197       -0.1471773697
 H          2.9973174990       -0.3934053073        1.3530688197
 H          1.4997980280        1.2333669874        0.1867717707
 H          1.6689495751        0.3134478381       -1.3065099844
 H          0.6511411090       -1.6789810915       -0.1980315714
 H          0.4757440970       -0.7400360953        1.3042100109
 H         -1.7824651285       -1.8539538763       -0.4088970512
 H         -1.8765232837       -0.9994098613        1.1585593583
 H         -3.8853363952       -0.8318784141       -0.5630520733
 H         -2.8346782248        0.3970561312       -1.3308608313
 H         -4.0632323095        1.4435639835        0.2448193620
          22
        -28.10871289
 C          3.5595380842       -0.9597333051       -0.0284779923
 C          2.3085600669       -0.2598498621       -0.5435109065
 C          1.7162447545        0.6855988835        0.4989113117
 C          0.4263915483        1.3433061775        0.0011889514
 O         -0.5871530872        0.4339694146       -0.3619902854
 C         -1.1990872758       -0.2430613259        0.7169089573
 C         -2.4323428374       -0.9525143668        0.1568889023
 O         -3.3564172300       -0.0393923100       -0.3709336879
 H          4.3247099789       -0.2312010607        0.2313788358
 H          3.3331262444       -1.5476871747        0.8586901493
 H          3.9635818925       -1.6260311770       -0.7867514702
 H          2.5516232672        0.3086370932       -1.4438109011
 H          1.5562644171       -1.0023640255       -0.8162463116
 H          1.5166739342        0.1357673716        1.4213216938
 H          2.4301943993        1.4775836836        0.7334325277
 H          0.0468125799        2.0376305323        0.7672714672
 H          0.6307756062        1.9069602155       -0.9133731491
 H         -0.5213546563       -0.9810092476        1.1661777680
 H         -1.5008373864        0.4792469111        1.4900332669
 H         -2.9454969318       -1.4973020184        0.9517675533
 H         -2.1085238897       -1.6630767480       -0.6167691048
 H         -2.8648750858        0.5422617090       -0.9649279317
