  13
 
 C         -0.0002565964       -2.5030707498       -0.0005682008
 C          1.2048513499       -1.8204047929       -0.0005277582
 C          1.2056786258       -0.4357637027       -0.0003205603
 C         -0.0000303532        0.2751216559       -0.0002076711
 C         -1.2058679613       -0.4355652215       -0.0002061190
 C         -1.2052499920       -1.8202034358       -0.0003887744
 Cl        -2.6945028482        0.4322802557        0.0000280394
 C          0.0001009636        1.6903507042       -0.0000646070
 N          0.0007360935        2.8354640565       -0.0005578158
 Cl         2.6944880068        0.4318053077       -0.0002336670
 H         -0.0003309272       -3.5818088761       -0.0006850801
 H          2.1416150772       -2.3533978027       -0.0006041991
 H         -2.1420998491       -2.3530449658       -0.0003486262
          13
        -28.49806459
 C         -0.0002460645       -2.5114762584       -0.0001532360
 C          1.2051091758       -1.8288162882       -0.0001003975
 C          1.2058898024       -0.4440272798        0.0000300796
 C         -0.0000244105        0.2669426686        0.0000904907
 C         -1.2060522494       -0.4438438704        0.0000416874
 C         -1.2054949410       -1.8286310067       -0.0000955603
 Cl        -2.6936404702        0.4251696910        0.0001046794
 C          0.0001164032        1.6819845909        0.0000601257
 N          0.0006802541        2.8270571587       -0.0003818808
 Cl         2.6936322586        0.4247288373        0.0001073247
 H         -0.0003266887       -3.5903411037       -0.0002888473
 H          2.1421862638       -2.3614561610       -0.0001778821
 H         -2.1426551462       -2.3611287771       -0.0001723940
