 13

C      1.885000    -1.036000    -0.112000
C      2.921000    -1.631000     0.608000
C      2.878000    -1.652000     2.002000
C      1.800000    -1.079000     2.676000
C      0.764000    -0.484000     1.955000
C      0.807000    -0.463000     0.561000
Cl    -0.602000     0.244000     2.731000
C      1.756000    -1.099000     4.111000
N      1.722000    -1.116000     5.265000
Cl     4.194000    -2.405000     2.838000
H      1.918000    -1.020000    -1.198000
H      3.754000    -2.072000     0.067000
H      0.008000    -0.004000    -0.017000
