19
CONF1
C -3.6605910536 -0.0936360112 -0.0005623450
C -2.2872255666 0.5315999286 -0.0003951073
O -1.3244103137 -0.5483336799 0.0005981062
C 0.0054165872 -0.2183747116 0.0002505929
C 0.4923573607 1.0914296070 0.0001842986
C 1.8718316431 1.3042099742 -0.0001667145
C 2.7638877806 0.2376257928 -0.0004637576
C 2.2647493316 -1.0662613078 -0.0003767555
C 0.8965816117 -1.2981864869 -0.0000162895
H -3.8096478190 -0.7113055389 0.8898893332
H -4.4168425273 0.6966542198 -0.0014628286
H -3.8088564136 -0.7125795196 -0.8902640088
H -2.1339184971 1.1524818621 0.8912703294
H -2.1331609022 1.1514104877 -0.8926778424
H -0.1780554369 1.9418701228 0.0004264782
H 2.2443133332 2.3241438093 -0.0002082863
H 3.8339216841 0.4159966285 -0.0007711280
H 2.9467590911 -1.9110719590 -0.0006266716
H 0.4998008010 -2.3085074859 0.0000230771
19
CONF2
C -2.8210782006 -0.7966193068 0.8483927125
C -2.4078801984 -0.3400487837 -0.5351482160
O -1.3954627946 0.6946425078 -0.4883330048
C -0.0970652490 0.3388899075 -0.2220649532
C 0.8001252644 1.4058970582 -0.0941408889
C 2.1437348858 1.1581465652 0.1507042991
C 2.6128266856 -0.1503584446 0.2742326200
C 1.7149678273 -1.2050554193 0.1474648855
C 0.3612191948 -0.9755681910 -0.0992213045
H -3.6329209788 -1.5255029450 0.7576372049
H -1.9977271708 -1.2707161008 1.3893656801
H -3.1856015586 0.0506016895 1.4370111972
H -3.2472438951 0.1373106131 -1.0466798975
H -2.0617319742 -1.1703779503 -1.1609869794
H 0.4277931389 2.4207214738 -0.1929256035
H 2.8293484792 1.9946554172 0.2461437531
H 3.6628818136 -0.3424433190 0.4673172910
H 2.0627599261 -2.2293508581 0.2420751982
H -0.3113813561 -1.8191921525 -0.1896811858
19
CONF4
C -3.6786961231 -0.0892683913 0.0062181936
C -2.2841628697 0.5280353007 -0.0008960942
O -1.3198387686 -0.5537238470 -0.0010674715
C 0.0086840937 -0.2197662275 -0.0007543307
C 0.4944680818 1.0906810981 -0.0019164049
C 1.8738737118 1.3049006566 -0.0001281114
C 2.7671857202 0.2396274751 0.0022686148
C 2.2695092056 -1.0649767263 0.0024474748
C 0.9018318288 -1.2984464071 0.0009134052
H -4.2536233170 0.2151019337 -0.8712281047
H -3.6080221709 -1.1802662681 -0.0049049723
H -4.2379119655 0.1984563611 0.8992582891
H -2.1128663586 1.1498631898 0.8854784386
H -2.1191015160 1.1444545810 -0.8922672250
H -0.1760750634 1.9408591569 -0.0040729972
H 2.2450877915 2.3252872490 -0.0005760376
H 3.8369942034 0.4192748299 0.0039229964
H 2.9525224340 -1.9089627373 0.0039514744
H 0.5063283952 -2.3092599172 0.0011570914
