20
 xtb: 6.7.1 (edcfbbe)
C           -1.61629508641073       -1.27559928183482       -0.57914459292842
C           -1.39012053356035        0.03098834750129        0.17696851808397
C           -0.00415564922673        0.66575418686373       -0.00904947807086
C            0.06195628130914        1.97915531680349        0.77380585820374
C            1.14491262230447       -0.27866753573754        0.40793218308432
C            1.78841159783037       -1.03466337565977       -0.75472648564139
H           -2.63966082415489       -1.63617644948329       -0.42989909940718
H           -1.46270420516765       -1.14243292046675       -1.65602019476295
H           -0.93784060565867       -2.06363311769535       -0.23733339030862
H           -1.54749508786239       -0.13939241979778        1.25140044505568
H           -2.14897554927896        0.76036851267427       -0.13434286619715
H            0.11950452762760        0.89837165269615       -1.07768937403228
H            1.01036506146214        2.49850221466061        0.59909031966924
H           -0.02076498718688        1.78702535828203        1.85091832432746
H           -0.75280228958630        2.65495655044794        0.49038931325200
H            1.92629035410622        0.30767585998235        0.90745102913306
H            0.77567485906049       -0.99042750349247        1.15899759272867
H            2.56945339970198       -1.71629491026547       -0.40061270412862
H            2.25298295702595       -0.33343190157229       -1.45729565129023
H            1.05780293467149       -1.62560785540834       -1.31502645365409
