 xtb: 6.7.1 (edcfbbe)
          04112510403D

 18 17  0     0  0            999 V2000
   -2.1353    0.4728    0.6371 C   0  0  0  0  0  0  0  0  0  0  0  0
   -1.5141    0.1722   -0.7222 C   0  0  0  0  0  0  0  0  0  0  0  0
   -0.2654   -0.7016   -0.6099 C   0  0  0  0  0  0  0  0  0  0  0  0
    0.9437   -0.0710    0.0322 C   0  0  0  0  0  0  0  0  0  0  0  0
    1.1299    1.2301    0.1847 C   0  0  0  0  0  0  0  0  0  0  0  0
    1.9790   -1.0662    0.4697 C   0  0  0  0  0  0  0  0  0  0  0  0
   -3.0131    1.1046    0.5234 H   0  0  0  0  0  0  0  0  0  0  0  0
   -1.4224    0.9820    1.2805 H   0  0  0  0  0  0  0  0  0  0  0  0
   -2.4383   -0.4502    1.1268 H   0  0  0  0  0  0  0  0  0  0  0  0
   -2.2470   -0.3549   -1.3376 H   0  0  0  0  0  0  0  0  0  0  0  0
   -1.2706    1.1038   -1.2350 H   0  0  0  0  0  0  0  0  0  0  0  0
   -0.5199   -1.6042   -0.0473 H   0  0  0  0  0  0  0  0  0  0  0  0
    0.0290   -1.0264   -1.6135 H   0  0  0  0  0  0  0  0  0  0  0  0
    2.0296    1.6166    0.6345 H   0  0  0  0  0  0  0  0  0  0  0  0
    0.4106    1.9675   -0.1238 H   0  0  0  0  0  0  0  0  0  0  0  0
    1.5845   -1.6915    1.2697 H   0  0  0  0  0  0  0  0  0  0  0  0
    2.2464   -1.7193   -0.3598 H   0  0  0  0  0  0  0  0  0  0  0  0
    2.8756   -0.5680    0.8278 H   0  0  0  0  0  0  0  0  0  0  0  0
  1  2  1  0  0  0  0
  2  3  1  0  0  0  0
  3  4  1  0  0  0  0
  4  5  2  0  0  0  0
  4  6  1  0  0  0  0
  1  7  1  0  0  0  0
  1  8  1  0  0  0  0
  1  9  1  0  0  0  0
  2 10  1  0  0  0  0
  2 11  1  0  0  0  0
  3 12  1  0  0  0  0
  3 13  1  0  0  0  0
  5 14  1  0  0  0  0
  5 15  1  0  0  0  0
  6 16  1  0  0  0  0
  6 17  1  0  0  0  0
  6 18  1  0  0  0  0
M  END
