  13
 
 C          2.3941371621       -0.0332460277       -0.0073776022
 C          0.9014518355       -0.0180782936       -0.0143789037
 C          0.1408609636       -1.1889356655       -0.0003014254
 N         -1.1798718937       -1.1698499219        0.0118362089
 C         -1.7682761576        0.0178643176        0.0093406323
 C         -1.0231604968        1.1877046212       -0.0092789648
 N          0.3000473957        1.1669725702       -0.0216787235
 H          2.7536821187       -0.0593836511        1.0211803867
 H          2.7756258806       -0.9091853426       -0.5261348891
 H          2.7724796629        0.8719413653       -0.4743359579
 H          0.6044456266       -2.1666910652       -0.0010431465
 H         -2.8490637353        0.0191262027        0.0187543688
 H         -1.4847655477        2.1658565632       -0.0170392356
          13
        -19.58890711
 C          2.3934831543       -0.0542735334       -0.0013346843
 C          0.9007362487       -0.0196337375        0.0008994716
 C          0.1286531505       -1.1841126286        0.0014458250
 N         -1.1912985058       -1.1519482818       -0.0003487837
 C         -1.7683340766        0.0422195187       -0.0014075690
 C         -1.0121131889        1.2045330960        0.0003553895
 N          0.3117684023        1.1705402119        0.0010190370
 H          2.7561220078       -0.5529616204       -0.8987844340
 H          2.7802628899        0.9601832820        0.0272119675
 H          2.7598311019       -0.6067984843        0.8622520494
 H          0.5840185414       -2.1658558754        0.0037480853
 H         -2.8491196592        0.0541324242       -0.0039879059
 H         -1.4640505220        2.1872004324        0.0007411355
