13
CONF1
C -1.7790778142 0.5884671401 -0.2670368467
O -0.9880800432 -0.1811827862 0.6516591946
C -0.0000461531 -0.9544320044 0.0001346046
O 0.9880391732 -0.1814065746 -0.6515893000
C 1.7790570192 0.5884676475 0.2669050788
H -1.1836283206 1.3721711468 -0.7489467599
H -2.5783576846 1.0516123281 0.3148916624
H -2.2164645387 -0.0603417331 -1.0374344656
H 0.4514539503 -1.5748355956 0.7859150968
H -0.4515686933 -1.5750114212 -0.7854954932
H 2.2163386777 -0.0601398473 1.0375334643
H 1.1836440747 1.3723780819 0.7485250860
H 2.5784102836 1.0513514156 -0.3151336977
13
CONF3
C -1.6463897369 0.8393771928 -0.0569340040
O -1.1777153609 -0.4474181347 0.3807815425
C -0.0135030091 -0.9184771997 -0.2705224716
O 1.2009056641 -0.4374130009 0.2733496728
C 1.6356050867 0.8381959306 -0.2281559179
H -1.5567884807 0.9365834159 -1.1462423764
H -1.0984935425 1.6533321392 0.4300179739
H -2.7004097673 0.9058553075 0.2234568521
H -0.0026837438 -1.9990559397 -0.1046781729
H -0.0627445110 -0.6839684651 -1.3457190183
H 2.7081319657 0.9074680651 -0.0312967346
H 1.1280216751 1.6650525574 0.2799788424
H 1.4624609197 0.9108594011 -1.3090727839
13
CONF2
C -1.9304694064 0.4510945156 -0.4648523887
O -1.2425472025 -0.2875520612 0.5596983181
C 0.0495549295 -0.6736957525 0.1826433907
O 0.8992328337 0.4710392674 0.1849084054
C 2.2219606100 0.1214629077 -0.2339340939
H -2.9558088278 0.5890115312 -0.1162682658
H -1.9370096394 -0.1139782072 -1.4059016620
H -1.4700076436 1.4314602224 -0.6294051025
H 0.3955062807 -1.4018263155 0.9301877776
H 0.0499600375 -1.1290934818 -0.8239643802
H 2.8185684964 1.0352637379 -0.2098348004
H 2.2199510834 -0.2833910885 -1.2554266819
H 2.6683614754 -0.6200059708 0.4434956478
