 xtb: 6.7.1 (edcfbbe)
          04112512193D

 17 16  0     0  0            999 V2000
   -2.0443    1.1929    0.7475 C   0  0  0  0  0  0  0  0  0  0  0  0
   -1.9467   -0.0201   -0.1671 C   0  0  0  0  0  0  0  0  0  0  0  0
   -0.5444   -0.5310   -0.3805 C   0  0  0  0  0  0  0  0  0  0  0  0
   -0.2723   -1.4257   -1.1603 O   0  0  0  0  0  0  0  0  0  0  0  0
    0.3532    0.0851    0.3682 O   0  0  0  0  0  0  0  0  0  0  0  0
    1.7351   -0.2958    0.2638 C   0  0  0  0  0  0  0  0  0  0  0  0
    2.5958    0.9545    0.3064 C   0  0  0  0  0  0  0  0  0  0  0  0
   -3.0837    1.4928    0.8446 H   0  0  0  0  0  0  0  0  0  0  0  0
   -1.6521    0.9611    1.7334 H   0  0  0  0  0  0  0  0  0  0  0  0
   -1.4766    2.0250    0.3409 H   0  0  0  0  0  0  0  0  0  0  0  0
   -2.3588    0.1976   -1.1546 H   0  0  0  0  0  0  0  0  0  0  0  0
   -2.5236   -0.8552    0.2376 H   0  0  0  0  0  0  0  0  0  0  0  0
    1.9541   -0.9528    1.1106 H   0  0  0  0  0  0  0  0  0  0  0  0
    1.8730   -0.8551   -0.6670 H   0  0  0  0  0  0  0  0  0  0  0  0
    3.6420    0.6695    0.2678 H   0  0  0  0  0  0  0  0  0  0  0  0
    2.3710    1.5972   -0.5402 H   0  0  0  0  0  0  0  0  0  0  0  0
    2.4068    1.5033    1.2240 H   0  0  0  0  0  0  0  0  0  0  0  0
  1  2  1  0  0  0  0
  2  3  1  0  0  0  0
  3  4  2  0  0  0  0
  3  5  1  0  0  0  0
  5  6  1  0  0  0  0
  6  7  1  0  0  0  0
  1  8  1  0  0  0  0
  1  9  1  0  0  0  0
  1 10  1  0  0  0  0
  2 11  1  0  0  0  0
  2 12  1  0  0  0  0
  6 13  1  0  0  0  0
  6 14  1  0  0  0  0
  7 15  1  0  0  0  0
  7 16  1  0  0  0  0
  7 17  1  0  0  0  0
M  END
