20
 xtb: 6.7.1 (edcfbbe)
C           -1.69304328323166        0.87460437093689       -0.90172421372947
C           -1.81370077969055       -0.05609476077211        0.30474490054054
C           -2.19183533717475       -1.47442953811723       -0.12312757951666
C           -0.55719283446222       -0.04428723582544        1.16387473190187
O            0.57822425932991       -0.59692151552256        0.42387624533331
C            1.49379850083705        0.25301058144512       -0.07928474851301
O            1.46638464658802        1.46245629679664        0.08399190966119
C            2.54481673209292       -0.45885734480448       -0.86996594969844
H           -1.45790324760795        1.89932873376550       -0.59684911534475
H           -2.63247403925669        0.89292912225560       -1.46335481675614
H           -0.90723998440924        0.53193287912507       -1.58550778714259
H           -2.60317592114415        0.33005323903500        0.96496240235518
H           -3.14879812956637       -1.47261174147138       -0.65452799216741
H           -2.28453603663161       -2.13932726352912        0.74223945236380
H           -1.43740185023915       -1.89488658258363       -0.79686289367999
H           -0.30853638820630        0.96404505835243        1.50182260205389
H           -0.66978896346783       -0.70374201344326        2.02823117151947
H            2.40417104071350       -0.20322825407608       -1.92573746499685
H            2.49146184452844       -1.54084450009183       -0.75175980038741
H            3.52851026890085       -0.08978011770711       -0.56991134191466
