 xtb: 6.7.1 (edcfbbe)
          04112511183D

 27 27  0     0  0            999 V2000
   -3.6237   -0.5593   -1.7780 C   0  0  0  0  0  0  0  0  0  0  0  0
   -3.0401   -1.5917   -0.8216 C   0  0  0  0  0  0  0  0  0  0  0  0
   -2.4905   -1.0341    0.5002 C   0  0  0  0  0  0  0  0  0  0  0  0
   -2.0054   -1.8728    1.0157 H   0  0  0  0  0  0  0  0  0  0  0  0
   -3.5614   -0.4781    1.4288 C   0  0  0  0  0  0  0  0  0  0  0  0
   -1.3808   -0.0911    0.2541 N   0  0  0  0  0  0  0  0  0  0  0  0
   -0.1142   -0.6772    0.1904 C   0  0  0  0  0  0  0  0  0  0  0  0
    0.0301   -1.8829    0.3106 O   0  0  0  0  0  0  0  0  0  0  0  0
    0.9848    0.2388   -0.0128 C   0  0  0  0  0  0  0  0  0  0  0  0
    0.8041    1.5754   -0.1589 C   0  0  0  0  0  0  0  0  0  0  0  0
   -0.4802    2.0254   -0.1178 N   0  0  0  0  0  0  0  0  0  0  0  0
   -1.6058    1.2507    0.0558 C   0  0  0  0  0  0  0  0  0  0  0  0
   -2.6991    1.7807    0.0290 O   0  0  0  0  0  0  0  0  0  0  0  0
    1.8650    2.5890   -0.3747 C   0  0  0  0  0  0  0  0  0  0  0  0
    2.7026   -0.5755   -0.0693 Br  0  0  0  0  0  0  0  0  0  0  0  0
   -2.8576    0.1270   -2.1324 H   0  0  0  0  0  0  0  0  0  0  0  0
   -4.0502   -1.0648   -2.6406 H   0  0  0  0  0  0  0  0  0  0  0  0
   -4.4033    0.0242   -1.2979 H   0  0  0  0  0  0  0  0  0  0  0  0
   -3.8093   -2.3204   -0.5635 H   0  0  0  0  0  0  0  0  0  0  0  0
   -2.2296   -2.1290   -1.3215 H   0  0  0  0  0  0  0  0  0  0  0  0
   -4.2225   -1.2926    1.7101 H   0  0  0  0  0  0  0  0  0  0  0  0
   -3.1050   -0.0741    2.3293 H   0  0  0  0  0  0  0  0  0  0  0  0
   -4.1426    0.3061    0.9569 H   0  0  0  0  0  0  0  0  0  0  0  0
   -0.6619    3.0159   -0.2494 H   0  0  0  0  0  0  0  0  0  0  0  0
    1.6999    3.4465    0.2725 H   0  0  0  0  0  0  0  0  0  0  0  0
    1.8384    2.9324   -1.4077 H   0  0  0  0  0  0  0  0  0  0  0  0
    2.8468    2.1702   -0.1769 H   0  0  0  0  0  0  0  0  0  0  0  0
  1  2  1  0  0  0  0
  2  3  1  0  0  0  0
  3  4  1  0  0  0  0
  3  5  1  0  0  0  0
  3  6  1  0  0  0  0
  6  7  1  0  0  0  0
  7  8  2  0  0  0  0
  7  9  1  0  0  0  0
  9 10  2  0  0  0  0
 10 11  1  0  0  0  0
  6 12  1  0  0  0  0
 11 12  1  0  0  0  0
 12 13  2  0  0  0  0
 10 14  1  0  0  0  0
  9 15  1  0  0  0  0
  1 16  1  0  0  0  0
  1 17  1  0  0  0  0
  1 18  1  0  0  0  0
  2 19  1  0  0  0  0
  2 20  1  0  0  0  0
  5 21  1  0  0  0  0
  5 22  1  0  0  0  0
  5 23  1  0  0  0  0
 11 24  1  0  0  0  0
 14 25  1  0  0  0  0
 14 26  1  0  0  0  0
 14 27  1  0  0  0  0
M  END
