13
 xtb: 6.7.1 (edcfbbe)
C           -1.77907781503756        0.58846714037105       -0.26703684680162
O           -0.98808004365189       -0.18118278629684        0.65165919485839
C           -0.00004615314221       -0.95443200486288        0.00013460463756
O            0.98803917360723       -0.18140657470802       -0.65158930033347
C            1.77905702003780        0.58846764772208        0.26690507895266
H           -1.18362832107880        1.37217114735954       -0.74894676025111
H           -2.57835768572122        1.05161232853012        0.31489166258512
H           -2.21646453965028       -0.06034173315260       -1.03743446606522
H            0.45145395048602       -1.57483559632165        0.78591509715062
H           -0.45156869354411       -1.57501142186225       -0.78549549357432
H            2.21633867867269       -0.06013984736663        1.03753346476139
H            1.18364407525475        1.37237808253449        0.74852508636563
H            2.57841028474905        1.05135141605516       -0.31513369786557
