 xtb: 6.7.1 (edcfbbe)
          04112511413D

 14 13  0     0  0            999 V2000
   -1.3098   -0.3588   -0.4468 C   0  0  0  0  0  0  0  0  0  0  0  0
    0.0386    0.0206    0.1780 C   0  0  0  0  0  0  0  0  0  0  0  0
    1.2166   -0.5096   -0.6435 C   0  0  0  0  0  0  0  0  0  0  0  0
    2.2768   -0.8174    0.2328 O   0  0  0  0  0  0  0  0  0  0  0  0
    0.1593    1.4235    0.2650 O   0  0  0  0  0  0  0  0  0  0  0  0
   -2.3218    0.1745    0.3808 O   0  0  0  0  0  0  0  0  0  0  0  0
   -1.3882   -1.4501   -0.5067 H   0  0  0  0  0  0  0  0  0  0  0  0
   -1.3669    0.0702   -1.4551 H   0  0  0  0  0  0  0  0  0  0  0  0
    0.0978   -0.4203    1.1846 H   0  0  0  0  0  0  0  0  0  0  0  0
    1.5065    0.2717   -1.3546 H   0  0  0  0  0  0  0  0  0  0  0  0
    0.9068   -1.4082   -1.1931 H   0  0  0  0  0  0  0  0  0  0  0  0
    3.0700   -1.0213   -0.2819 H   0  0  0  0  0  0  0  0  0  0  0  0
   -0.6325    1.7607    0.7110 H   0  0  0  0  0  0  0  0  0  0  0  0
   -3.1888   -0.0293    0.0054 H   0  0  0  0  0  0  0  0  0  0  0  0
  1  2  1  0  0  0  0
  2  3  1  0  0  0  0
  3  4  1  0  0  0  0
  2  5  1  0  0  0  0
  1  6  1  0  0  0  0
  1  7  1  0  0  0  0
  1  8  1  0  0  0  0
  2  9  1  0  0  0  0
  3 10  1  0  0  0  0
  3 11  1  0  0  0  0
  4 12  1  0  0  0  0
  5 13  1  0  0  0  0
  6 14  1  0  0  0  0
M  END
