 xtb: 6.7.1 (edcfbbe)
          04112512423D

 17 16  0     0  0            999 V2000
   -2.2024    0.6534   -1.0140 C   0  0  0  0  0  0  0  0  0  0  0  0
   -1.8632    0.2104    0.4117 C   0  0  0  0  0  0  0  0  0  0  0  0
   -0.4523   -0.3167    0.4603 C   0  0  0  0  0  0  0  0  0  0  0  0
   -0.1545   -1.4894    0.5594 O   0  0  0  0  0  0  0  0  0  0  0  0
    0.4370    0.6633    0.3702 O   0  0  0  0  0  0  0  0  0  0  0  0
    1.8323    0.3213    0.3427 C   0  0  0  0  0  0  0  0  0  0  0  0
    2.2864   -0.0280   -1.0664 C   0  0  0  0  0  0  0  0  0  0  0  0
   -3.2238    1.0199   -1.0500 H   0  0  0  0  0  0  0  0  0  0  0  0
   -1.5310    1.4473   -1.3296 H   0  0  0  0  0  0  0  0  0  0  0  0
   -2.1071   -0.1823   -1.7033 H   0  0  0  0  0  0  0  0  0  0  0  0
   -2.5361   -0.5830    0.7349 H   0  0  0  0  0  0  0  0  0  0  0  0
   -1.9395    1.0620    1.0871 H   0  0  0  0  0  0  0  0  0  0  0  0
    2.3397    1.2118    0.7148 H   0  0  0  0  0  0  0  0  0  0  0  0
    1.9978   -0.5223    1.0198 H   0  0  0  0  0  0  0  0  0  0  0  0
    3.3539   -0.2219   -1.0624 H   0  0  0  0  0  0  0  0  0  0  0  0
    1.7674   -0.9185   -1.4142 H   0  0  0  0  0  0  0  0  0  0  0  0
    2.0734    0.7942   -1.7443 H   0  0  0  0  0  0  0  0  0  0  0  0
  1  2  1  0  0  0  0
  2  3  1  0  0  0  0
  3  4  2  0  0  0  0
  3  5  1  0  0  0  0
  5  6  1  0  0  0  0
  6  7  1  0  0  0  0
  1  8  1  0  0  0  0
  1  9  1  0  0  0  0
  1 10  1  0  0  0  0
  2 11  1  0  0  0  0
  2 12  1  0  0  0  0
  6 13  1  0  0  0  0
  6 14  1  0  0  0  0
  7 15  1  0  0  0  0
  7 16  1  0  0  0  0
  7 17  1  0  0  0  0
M  END
