 xtb: 6.7.1 (edcfbbe)
          04112512383D

 23 22  0     0  0            999 V2000
   -1.6336    1.0302   -0.9156 C   0  0  0  0  0  0  0  0  0  0  0  0
   -1.2742    0.1289    0.2636 C   0  0  0  0  0  0  0  0  0  0  0  0
   -2.4304   -0.8282    0.5551 C   0  0  0  0  0  0  0  0  0  0  0  0
   -0.0000   -0.6825    0.0001 C   0  0  0  0  0  0  0  0  0  0  0  0
    1.2742    0.1287   -0.2636 C   0  0  0  0  0  0  0  0  0  0  0  0
    1.6337    1.0304    0.9153 C   0  0  0  0  0  0  0  0  0  0  0  0
    2.4303   -0.8285   -0.5548 C   0  0  0  0  0  0  0  0  0  0  0  0
   -2.5862    1.5232   -0.7345 H   0  0  0  0  0  0  0  0  0  0  0  0
   -0.8804    1.7985   -1.0674 H   0  0  0  0  0  0  0  0  0  0  0  0
   -1.7190    0.4435   -1.8278 H   0  0  0  0  0  0  0  0  0  0  0  0
   -1.1218    0.7541    1.1490 H   0  0  0  0  0  0  0  0  0  0  0  0
   -2.6249   -1.4607   -0.3086 H   0  0  0  0  0  0  0  0  0  0  0  0
   -2.1961   -1.4680    1.4028 H   0  0  0  0  0  0  0  0  0  0  0  0
   -3.3372   -0.2735    0.7848 H   0  0  0  0  0  0  0  0  0  0  0  0
   -0.1797   -1.3301   -0.8623 H   0  0  0  0  0  0  0  0  0  0  0  0
    0.1796   -1.3299    0.8627 H   0  0  0  0  0  0  0  0  0  0  0  0
    1.1219    0.7537   -1.1492 H   0  0  0  0  0  0  0  0  0  0  0  0
    2.5863    1.5233    0.7341 H   0  0  0  0  0  0  0  0  0  0  0  0
    0.8805    1.7988    1.0669 H   0  0  0  0  0  0  0  0  0  0  0  0
    1.7191    0.4439    1.8277 H   0  0  0  0  0  0  0  0  0  0  0  0
    2.1960   -1.4685   -1.4024 H   0  0  0  0  0  0  0  0  0  0  0  0
    3.3372   -0.2739   -0.7847 H   0  0  0  0  0  0  0  0  0  0  0  0
    2.6248   -1.4607    0.3091 H   0  0  0  0  0  0  0  0  0  0  0  0
  1  2  1  0  0  0  0
  2  3  1  0  0  0  0
  2  4  1  0  0  0  0
  4  5  1  0  0  0  0
  5  6  1  0  0  0  0
  5  7  1  0  0  0  0
  1  8  1  0  0  0  0
  1  9  1  0  0  0  0
  1 10  1  0  0  0  0
  2 11  1  0  0  0  0
  3 12  1  0  0  0  0
  3 13  1  0  0  0  0
  3 14  1  0  0  0  0
  4 15  1  0  0  0  0
  4 16  1  0  0  0  0
  5 17  1  0  0  0  0
  6 18  1  0  0  0  0
  6 19  1  0  0  0  0
  6 20  1  0  0  0  0
  7 21  1  0  0  0  0
  7 22  1  0  0  0  0
  7 23  1  0  0  0  0
M  END
