14
 xtb: 6.7.1 (edcfbbe)
C           -1.09458765097065       -0.53637180114596       -0.17581015305347
C            0.01034562782611        0.16398728306768        0.60172676206781
C            1.31017959056494       -0.63055897499521        0.63112750883487
O            1.93592064025450       -0.69814788917648       -0.66195981984567
O            0.23169716349323        1.48077968412921        0.06131649422682
O           -2.31300631172200        0.22086336246682       -0.15174521402191
H           -1.31481593751261       -1.50447563429242        0.28522081688311
H           -0.77593508292250       -0.70862890479722       -1.21561517174382
H           -0.32299246718671        0.31393558523167        1.63592321368983
H            1.12626703813353       -1.63556140799804        1.03346758668524
H            2.02363425824476       -0.12075639470284        1.28533265220894
H            1.46453342365174       -1.35330405181756       -1.19158189608059
H            0.69293528643500        1.35259530833876       -0.78107833527587
H           -2.09280055522378        1.10220894394696       -0.48536207928116
