18
 xtb: 6.7.1 (edcfbbe)
C           -1.75301575500934        0.93577284077929       -0.37403806276396
C           -1.03816356431545        0.20989244281269        0.76375412378161
C            0.14788022935517       -0.64742113660606        0.33417931159046
C            1.20809718898120        0.08977894828521       -0.48021922418724
C            1.83726663965437        1.25913596852521        0.27262931666703
O           -0.38962376430966       -1.75459362850953       -0.43292461849267
H           -2.63661762120489        1.45909204888679        0.00486035523033
H           -1.10744726072873        1.68204198088732       -0.84778760315181
H           -2.08743897584292        0.23816266048116       -1.14837928998895
H           -0.68466014212244        0.93610488856854        1.50422589884633
H           -1.74541246320943       -0.44388811782070        1.28877352915116
H            0.62402779069535       -1.04875281448303        1.24339719044920
H            1.98886879923158       -0.63461272484306       -0.74760124150372
H            0.76398570647722        0.43732796580000       -1.42083935117411
H            2.23704810520325        0.93525259536914        1.24032602688733
H            2.66264386968378        1.69037729561935       -0.30185284191021
H            1.11015955151687        2.05569974507329        0.45934983598813
H            0.35980865526645       -2.27919398806646       -0.74316288737031
