  30
 
 C          4.0833197504        1.5619938085        0.2665656555
 C          2.6197559034        1.2423213004        0.5143681185
 O          2.0675553513        0.7045340704       -0.6930355509
 C          0.8689728641        0.0503027941       -0.5339920804
 O          0.9645282186       -1.0936410562        0.2561177302
 C          1.7591261462       -2.1238804504       -0.3087658946
 C          1.6847293298       -3.3378037902        0.6008443910
 O         -0.0475303424        0.9084316997        0.0535065282
 C         -1.3819945101        0.5858276985        0.0452441306
 C         -1.9098557970       -0.6115317890       -0.4166829696
 C         -3.2804704245       -0.8138361673       -0.3829941509
 C         -4.1283815579        0.1604267856        0.1092097295
 C         -3.5980798811        1.3525062428        0.5769749406
 C         -2.2353578635        1.5676728474        0.5450803489
 H          4.5218343737        1.9868641495        1.1651977865
 H          4.6265522039        0.6605144476       -0.0041662418
 H          4.1720902346        2.2754040080       -0.5475982865
 H          2.0641385189        2.1464709453        0.7868208310
 H          2.5063925400        0.5060837482        1.3182073134
 H          0.5622965352       -0.2231884725       -1.5679149562
 H          1.3777872871       -2.3634924361       -1.3136905399
 H          2.7950400423       -1.7768448749       -0.4151141640
 H          2.2823395267       -4.1443291084        0.1855576274
 H          2.0592848393       -3.0844127344        1.5884141510
 H          0.6536762539       -3.6664403910        0.6979013418
 H         -1.2655092381       -1.3931839084       -0.7844946525
 H         -3.6831802484       -1.7484165047       -0.7450726703
 H         -5.1944689604       -0.0073011776        0.1324254109
 H         -4.2503022832        2.1195818782        0.9673928128
 H         -1.8046281834        2.4894252688        0.9023994919
          30
        -43.91298678
 C          0.5578639045        2.5600000431        1.3401962791
 C          1.6458360335        2.3059111726        0.3030920278
 O          1.2107145478        1.4808678887       -0.7817583045
 C          1.2462099892        0.1206931910       -0.5759294306
 O          2.5066723358       -0.2707480467       -0.1704071555
 C          2.8845174409       -1.6009311681       -0.4851449048
 C          2.2301558347       -2.6559835447        0.3987271299
 O          0.3265355079       -0.3345681045        0.3840651553
 C         -1.0158102868       -0.2869305756        0.1061720546
 C         -1.8405242984       -0.9594884733        1.0061426212
 C         -3.2074852498       -0.9718357396        0.8167176889
 C         -3.7678006262       -0.3202980083       -0.2706500687
 C         -2.9480351338        0.3503613951       -1.1593084298
 C         -1.5744764548        0.3758682288       -0.9787195172
 H          0.9046827447        3.3108481747        2.0457262332
 H         -0.3458752672        2.9202146938        0.8536554397
 H          0.3220018024        1.6492478439        1.8837046037
 H          2.5259593667        1.8525234750        0.7661915216
 H          1.9332724510        3.2422302357       -0.1815158261
 H          0.9943487741       -0.3241373699       -1.5629940433
 H          2.6638454125       -1.8010863041       -1.5437669861
 H          3.9677654777       -1.6075135776       -0.3411065880
 H          2.6526857723       -3.6308208544        0.1690691315
 H          2.4125450046       -2.4245347487        1.4445458052
 H          1.1563968058       -2.6869214643        0.2350858890
 H         -1.3862770090       -1.4623375664        1.8456041993
 H         -3.8386575215       -1.4948924630        1.5197746087
 H         -4.8368632031       -0.3321655683       -0.4196050960
 H         -3.3762446439        0.8678368516       -2.0051326608
 H         -0.9495668276        0.9245925272       -1.6650807001
