 30

C      1.875000     0.703000     0.656000
C      0.367000     0.622000     0.762000
O     -0.171000     1.938000     0.737000
C     -1.609000     1.969000     0.833000
O     -2.239000     1.264000    -0.246000
C     -2.296000     2.035000    -1.439000
C     -2.973000     1.219000    -2.519000
O     -2.031000     1.474000     2.115000
C     -3.371000     1.428000     2.391000
C     -4.235000     2.356000     1.808000
C     -5.601000     2.309000     2.089000
C     -6.102000     1.335000     2.952000
C     -5.239000     0.407000     3.534000
C     -3.873000     0.454000     3.254000
H      2.321000    -0.296000     0.672000
H      2.170000     1.207000    -0.270000
H      2.289000     1.288000     1.483000
H      0.073000     0.139000     1.698000
H     -0.047000     0.056000    -0.078000
H     -1.865000     3.034000     0.777000
H     -2.860000     2.950000    -1.238000
H     -1.277000     2.297000    -1.736000
H     -3.033000     1.785000    -3.453000
H     -2.423000     0.290000    -2.703000
H     -3.985000     0.935000    -2.212000
H     -3.850000     3.116000     1.135000
H     -6.273000     3.030000     1.634000
H     -7.166000     1.297000     3.169000
H     -5.630000    -0.352000     4.206000
H     -3.205000    -0.271000     3.711000
