  30
 
 C          1.8750000000        0.7030000000        0.6560000000
 C          0.3670000000        0.6220000000        0.7620000000
 O         -0.1710000000        1.9380000000        0.7370000000
 C         -1.6090000000        1.9690000000        0.8330000000
 O         -2.2390000000        1.2640000000       -0.2460000000
 C         -2.2960000000        2.0350000000       -1.4390000000
 C         -2.9730000000        1.2190000000       -2.5190000000
 O         -2.0310000000        1.4740000000        2.1150000000
 C         -3.3710000000        1.4280000000        2.3910000000
 C         -4.2350000000        2.3560000000        1.8080000000
 C         -5.6010000000        2.3090000000        2.0890000000
 C         -6.1020000000        1.3350000000        2.9520000000
 C         -5.2390000000        0.4070000000        3.5340000000
 C         -3.8730000000        0.4540000000        3.2540000000
 H          2.3210000000       -0.2960000000        0.6720000000
 H          2.1700000000        1.2070000000       -0.2700000000
 H          2.2890000000        1.2880000000        1.4830000000
 H          0.0730000000        0.1390000000        1.6980000000
 H         -0.0470000000        0.0560000000       -0.0780000000
 H         -1.8650000000        3.0340000000        0.7770000000
 H         -2.8600000000        2.9500000000       -1.2380000000
 H         -1.2770000000        2.2970000000       -1.7360000000
 H         -3.0330000000        1.7850000000       -3.4530000000
 H         -2.4230000000        0.2900000000       -2.7030000000
 H         -3.9850000000        0.9350000000       -2.2120000000
 H         -3.8500000000        3.1160000000        1.1350000000
 H         -6.2730000000        3.0300000000        1.6340000000
 H         -7.1660000000        1.2970000000        3.1690000000
 H         -5.6300000000       -0.3520000000        4.2060000000
 H         -3.2050000000       -0.2710000000        3.7110000000
