  12
 
 C          0.9690000000       -0.0550000000       -0.5590000000
 N          1.5480000000       -1.3610000000       -0.2930000000
 C          0.7830000000       -2.5560000000       -0.6070000000
 C          2.8170000000       -1.4420000000        0.2540000000
 O          3.5580000000       -0.5150000000        0.5610000000
 H          0.4130000000        0.2950000000        0.3150000000
 H          0.2860000000       -0.1110000000       -1.4110000000
 H          1.7560000000        0.6680000000       -0.7880000000
 H          1.0000000000       -2.8640000000       -1.6280000000
 H         -0.2790000000       -2.3430000000       -0.5090000000
 H          1.0590000000       -3.3530000000        0.0800000000
 H          3.1360000000       -2.4870000000        0.4040000000
