 xtb: 6.7.1 (edcfbbe)
          04112512133D

 24 24  0     0  0            999 V2000
   -3.2370   -0.0826   -0.5828 C   0  0  0  0  0  0  0  0  0  0  0  0
   -1.7123   -0.0590   -0.5754 C   0  0  0  0  0  0  0  0  0  0  0  0
   -1.1676   -0.1966    0.8455 C   0  0  0  0  0  0  0  0  0  0  0  0
    0.3605   -0.1564    0.9812 C   0  0  0  0  0  0  0  0  0  0  0  0
    1.0890   -1.1995    0.1088 C   0  0  0  0  0  0  0  0  0  0  0  0
    1.7764   -0.3983   -0.9949 C   0  0  0  0  0  0  0  0  0  0  0  0
    2.1871    0.8832   -0.2775 C   0  0  0  0  0  0  0  0  0  0  0  0
    0.9700    1.2063    0.5900 C   0  0  0  0  0  0  0  0  0  0  0  0
   -3.6345    0.7394    0.0086 H   0  0  0  0  0  0  0  0  0  0  0  0
   -3.6159    0.0096   -1.5979 H   0  0  0  0  0  0  0  0  0  0  0  0
   -3.6062   -1.0153   -0.1616 H   0  0  0  0  0  0  0  0  0  0  0  0
   -1.3419   -0.8761   -1.1960 H   0  0  0  0  0  0  0  0  0  0  0  0
   -1.3712    0.8770   -1.0205 H   0  0  0  0  0  0  0  0  0  0  0  0
   -1.5849    0.6053    1.4606 H   0  0  0  0  0  0  0  0  0  0  0  0
   -1.5233   -1.1435    1.2607 H   0  0  0  0  0  0  0  0  0  0  0  0
    0.5817   -0.3581    2.0341 H   0  0  0  0  0  0  0  0  0  0  0  0
    1.8452   -1.7131    0.7048 H   0  0  0  0  0  0  0  0  0  0  0  0
    0.4092   -1.9534   -0.2836 H   0  0  0  0  0  0  0  0  0  0  0  0
    2.6235   -0.9286   -1.4283 H   0  0  0  0  0  0  0  0  0  0  0  0
    1.0691   -0.1656   -1.7917 H   0  0  0  0  0  0  0  0  0  0  0  0
    3.0566    0.6883    0.3526 H   0  0  0  0  0  0  0  0  0  0  0  0
    2.4344    1.6918   -0.9640 H   0  0  0  0  0  0  0  0  0  0  0  0
    1.2401    1.7927    1.4674 H   0  0  0  0  0  0  0  0  0  0  0  0
    0.2522    1.7879    0.0126 H   0  0  0  0  0  0  0  0  0  0  0  0
  1  2  1  0  0  0  0
  2  3  1  0  0  0  0
  3  4  1  0  0  0  0
  4  5  1  0  0  0  0
  5  6  1  0  0  0  0
  6  7  1  0  0  0  0
  4  8  1  0  0  0  0
  7  8  1  0  0  0  0
  1  9  1  0  0  0  0
  1 10  1  0  0  0  0
  1 11  1  0  0  0  0
  2 12  1  0  0  0  0
  2 13  1  0  0  0  0
  3 14  1  0  0  0  0
  3 15  1  0  0  0  0
  4 16  1  0  0  0  0
  5 17  1  0  0  0  0
  5 18  1  0  0  0  0
  6 19  1  0  0  0  0
  6 20  1  0  0  0  0
  7 21  1  0  0  0  0
  7 22  1  0  0  0  0
  8 23  1  0  0  0  0
  8 24  1  0  0  0  0
M  END
