 xtb: 6.7.1 (edcfbbe)
          04112511203D

 13 12  0     0  0            999 V2000
   -1.8182    0.5735   -0.2991 C   0  0  0  0  0  0  0  0  0  0  0  0
   -0.9935   -0.1375    0.6156 O   0  0  0  0  0  0  0  0  0  0  0  0
   -0.0001   -0.9026    0.0001 C   0  0  0  0  0  0  0  0  0  0  0  0
    0.9934   -0.1377   -0.6155 O   0  0  0  0  0  0  0  0  0  0  0  0
    1.8182    0.5735    0.2989 C   0  0  0  0  0  0  0  0  0  0  0  0
   -1.2162    1.2251   -0.9369 H   0  0  0  0  0  0  0  0  0  0  0  0
   -2.4970    1.1642    0.3093 H   0  0  0  0  0  0  0  0  0  0  0  0
   -2.3805   -0.1270   -0.9234 H   0  0  0  0  0  0  0  0  0  0  0  0
    0.4201   -1.5283    0.7999 H   0  0  0  0  0  0  0  0  0  0  0  0
   -0.4203   -1.5285   -0.7995 H   0  0  0  0  0  0  0  0  0  0  0  0
    2.3805   -0.1269    0.9234 H   0  0  0  0  0  0  0  0  0  0  0  0
    1.2162    1.2253    0.9366 H   0  0  0  0  0  0  0  0  0  0  0  0
    2.4970    1.1640   -0.3096 H   0  0  0  0  0  0  0  0  0  0  0  0
  1  2  1  0  0  0  0
  2  3  1  0  0  0  0
  3  4  1  0  0  0  0
  4  5  1  0  0  0  0
  1  6  1  0  0  0  0
  1  7  1  0  0  0  0
  1  8  1  0  0  0  0
  3  9  1  0  0  0  0
  3 10  1  0  0  0  0
  5 11  1  0  0  0  0
  5 12  1  0  0  0  0
  5 13  1  0  0  0  0
M  END
