 xtb: 6.7.1 (edcfbbe)
          04072508503D

 19 19  0     0  0            999 V2000
   -2.8350   -0.1626   -0.0922 C   0  0  0  0  0  0  0  0  0  0  0  0
   -1.9529   -1.2147   -0.2589 C   0  0  0  0  0  0  0  0  0  0  0  0
   -0.5864   -1.0100   -0.1511 C   0  0  0  0  0  0  0  0  0  0  0  0
   -0.0796    0.2533    0.1224 C   0  0  0  0  0  0  0  0  0  0  0  0
   -0.9782    1.3046    0.2872 C   0  0  0  0  0  0  0  0  0  0  0  0
   -2.3413    1.1020    0.1834 C   0  0  0  0  0  0  0  0  0  0  0  0
    1.3914    0.5444    0.2646 C   0  0  0  0  0  0  0  0  0  0  0  0
    2.3292   -0.5666   -0.2095 C   0  0  0  0  0  0  0  0  0  0  0  0
    3.6893   -0.2094   -0.0747 O   0  0  0  0  0  0  0  0  0  0  0  0
   -3.8988   -0.3255   -0.1760 H   0  0  0  0  0  0  0  0  0  0  0  0
   -2.3274   -2.2046   -0.4737 H   0  0  0  0  0  0  0  0  0  0  0  0
    0.0797   -1.8477   -0.2829 H   0  0  0  0  0  0  0  0  0  0  0  0
   -0.5996    2.2939    0.5015 H   0  0  0  0  0  0  0  0  0  0  0  0
   -3.0201    1.9313    0.3160 H   0  0  0  0  0  0  0  0  0  0  0  0
    1.6167    1.4566   -0.2960 H   0  0  0  0  0  0  0  0  0  0  0  0
    1.6103    0.7518    1.3166 H   0  0  0  0  0  0  0  0  0  0  0  0
    2.2129   -1.4589    0.4097 H   0  0  0  0  0  0  0  0  0  0  0  0
    2.1082   -0.8290   -1.2533 H   0  0  0  0  0  0  0  0  0  0  0  0
    3.8672    0.5729   -0.6152 H   0  0  0  0  0  0  0  0  0  0  0  0
  1  2  4  0  0  0  0
  2  3  4  0  0  0  0
  3  4  4  0  0  0  0
  4  5  4  0  0  0  0
  1  6  4  0  0  0  0
  5  6  4  0  0  0  0
  4  7  1  0  0  0  0
  7  8  1  0  0  0  0
  8  9  1  0  0  0  0
  1 10  1  0  0  0  0
  2 11  1  0  0  0  0
  3 12  1  0  0  0  0
  5 13  1  0  0  0  0
  6 14  1  0  0  0  0
  7 15  1  0  0  0  0
  7 16  1  0  0  0  0
  8 17  1  0  0  0  0
  8 18  1  0  0  0  0
  9 19  1  0  0  0  0
M  END
