24
 xtb: 6.7.1 (edcfbbe)
C           -3.32315552595570        0.06830561976328       -0.67843666991488
C           -2.16459104343704        0.29088730560588        0.29075865584127
C           -0.90860995797787       -0.47673203783127       -0.12009489611248
C            0.28369047386852       -0.27180869350935        0.82329630675836
C            1.45741255742939       -1.20131066813355        0.47698113642310
C            2.12204542052110       -0.53710293963601       -0.74334345702273
C            1.85286608608805        0.98332596901526       -0.57560257353684
C            0.93517333401772        1.11357656858608        0.66349197410700
H           -3.06193155628101        0.41357598341045       -1.68525315897398
H           -3.57712377502810       -0.99562024966341       -0.74789347561426
H           -4.22225587521622        0.60746971949622       -0.36247675519881
H           -1.94272002101873        1.36350279175646        0.35168140682140
H           -2.46192151293494       -0.02313124957225        1.30021998467242
H           -1.14989815037146       -1.54819093811783       -0.15970232386616
H           -0.62729802813453       -0.18540814916112       -1.14193002843512
H           -0.05762895762368       -0.43388854379246        1.85411961976282
H            2.16017781942936       -1.22108637780450        1.31882561518038
H            1.14141001982561       -2.23186333079925        0.28217313645092
H            3.18968638598121       -0.76714524352780       -0.80319382410912
H            1.66397060284385       -0.90421032505987       -1.66729077620832
H            2.77948964553171        1.54862685518642       -0.43964028374058
H            1.36386040541169        1.38768505939333       -1.46716287833897
H            1.53841456294492        1.32897004784014        1.55295195836225
H            0.20588802990204        1.92328587564752        0.56234009928064
