 xtb: 6.7.1 (edcfbbe)
          04112512213D

 14 13  0     0  0            999 V2000
   -2.8117    0.2294   -0.0008 C   0  0  0  0  0  0  0  0  0  0  0  0
   -1.4444   -0.4415   -0.0004 C   0  0  0  0  0  0  0  0  0  0  0  0
   -0.3194    0.5893    0.0019 C   0  0  0  0  0  0  0  0  0  0  0  0
    1.0438   -0.0431    0.0006 C   0  0  0  0  0  0  0  0  0  0  0  0
    1.2666   -1.2347    0.0001 O   0  0  0  0  0  0  0  0  0  0  0  0
    2.0150    0.8610   -0.0011 O   0  0  0  0  0  0  0  0  0  0  0  0
   -3.5982   -0.5200   -0.0023 H   0  0  0  0  0  0  0  0  0  0  0  0
   -2.9303    0.8544   -0.8824 H   0  0  0  0  0  0  0  0  0  0  0  0
   -2.9312    0.8521    0.8824 H   0  0  0  0  0  0  0  0  0  0  0  0
   -1.3424   -1.0827    0.8771 H   0  0  0  0  0  0  0  0  0  0  0  0
   -1.3412   -1.0803   -0.8795 H   0  0  0  0  0  0  0  0  0  0  0  0
   -0.3838    1.2373   -0.8748 H   0  0  0  0  0  0  0  0  0  0  0  0
   -0.3836    1.2328    0.8820 H   0  0  0  0  0  0  0  0  0  0  0  0
    2.9046    0.4577   -0.0023 H   0  0  0  0  0  0  0  0  0  0  0  0
  1  2  1  0  0  0  0
  2  3  1  0  0  0  0
  3  4  1  0  0  0  0
  4  5  2  0  0  0  0
  4  6  1  0  0  0  0
  1  7  1  0  0  0  0
  1  8  1  0  0  0  0
  1  9  1  0  0  0  0
  2 10  1  0  0  0  0
  2 11  1  0  0  0  0
  3 12  1  0  0  0  0
  3 13  1  0  0  0  0
  6 14  1  0  0  0  0
M  END
