 xtb: 6.7.1 (edcfbbe)
          04112512243D

 23 22  0     0  0            999 V2000
    2.0428    0.4095    1.0059 C   0  0  0  0  0  0  0  0  0  0  0  0
    1.2356    0.7939   -0.2319 C   0  0  0  0  0  0  0  0  0  0  0  0
    0.2383   -0.2563   -0.7596 C   0  0  0  0  0  0  0  0  0  0  0  0
    0.1152   -0.0498   -1.8308 H   0  0  0  0  0  0  0  0  0  0  0  0
    0.7912   -1.6773   -0.6477 C   0  0  0  0  0  0  0  0  0  0  0  0
   -1.1838   -0.1642   -0.1618 C   0  0  0  0  0  0  0  0  0  0  0  0
   -1.2343   -0.1760    1.3638 C   0  0  0  0  0  0  0  0  0  0  0  0
   -1.9278    1.0639   -0.6886 C   0  0  0  0  0  0  0  0  0  0  0  0
    2.6629    1.2528    1.3042 H   0  0  0  0  0  0  0  0  0  0  0  0
    1.4034    0.1480    1.8423 H   0  0  0  0  0  0  0  0  0  0  0  0
    2.6995   -0.4304    0.7973 H   0  0  0  0  0  0  0  0  0  0  0  0
    1.9476    1.0108   -1.0327 H   0  0  0  0  0  0  0  0  0  0  0  0
    0.6968    1.7205   -0.0287 H   0  0  0  0  0  0  0  0  0  0  0  0
    1.7750   -1.7360   -1.1075 H   0  0  0  0  0  0  0  0  0  0  0  0
    0.8744   -1.9910    0.3886 H   0  0  0  0  0  0  0  0  0  0  0  0
    0.1338   -2.3749   -1.1626 H   0  0  0  0  0  0  0  0  0  0  0  0
   -1.7233   -1.0503   -0.5191 H   0  0  0  0  0  0  0  0  0  0  0  0
   -0.8008    0.7330    1.7721 H   0  0  0  0  0  0  0  0  0  0  0  0
   -0.7069   -1.0356    1.7682 H   0  0  0  0  0  0  0  0  0  0  0  0
   -2.2697   -0.2317    1.6946 H   0  0  0  0  0  0  0  0  0  0  0  0
   -1.9452    1.0678   -1.7762 H   0  0  0  0  0  0  0  0  0  0  0  0
   -1.4552    1.9830   -0.3504 H   0  0  0  0  0  0  0  0  0  0  0  0
   -2.9546    1.0621   -0.3298 H   0  0  0  0  0  0  0  0  0  0  0  0
  1  2  1  0  0  0  0
  2  3  1  0  0  0  0
  3  4  1  0  0  0  0
  3  5  1  0  0  0  0
  3  6  1  0  0  0  0
  6  7  1  0  0  0  0
  6  8  1  0  0  0  0
  1  9  1  0  0  0  0
  1 10  1  0  0  0  0
  1 11  1  0  0  0  0
  2 12  1  0  0  0  0
  2 13  1  0  0  0  0
  5 14  1  0  0  0  0
  5 15  1  0  0  0  0
  5 16  1  0  0  0  0
  6 17  1  0  0  0  0
  7 18  1  0  0  0  0
  7 19  1  0  0  0  0
  7 20  1  0  0  0  0
  8 21  1  0  0  0  0
  8 22  1  0  0  0  0
  8 23  1  0  0  0  0
M  END
