 xtb: 6.7.1 (edcfbbe)
          04112512333D

 21 20  0     0  0            999 V2000
    1.7715   -0.8551    1.1972 C   0  0  0  0  0  0  0  0  0  0  0  0
    1.4812   -0.2636   -0.1764 C   0  0  0  0  0  0  0  0  0  0  0  0
    0.2978    0.7135   -0.2225 C   0  0  0  0  0  0  0  0  0  0  0  0
    0.4564    1.4893    0.5367 H   0  0  0  0  0  0  0  0  0  0  0  0
   -1.1151    0.1177   -0.0110 C   0  0  0  0  0  0  0  0  0  0  0  0
   -1.3113   -1.2445   -0.6748 C   0  0  0  0  0  0  0  0  0  0  0  0
   -1.5057    0.0531    1.4647 C   0  0  0  0  0  0  0  0  0  0  0  0
    0.3376    1.4357   -1.4488 O   0  0  0  0  0  0  0  0  0  0  0  0
    1.0128   -1.5757    1.4877 H   0  0  0  0  0  0  0  0  0  0  0  0
    1.8136   -0.0715    1.9497 H   0  0  0  0  0  0  0  0  0  0  0  0
    2.7309   -1.3668    1.1799 H   0  0  0  0  0  0  0  0  0  0  0  0
    2.3549    0.3064   -0.5045 H   0  0  0  0  0  0  0  0  0  0  0  0
    1.3239   -1.0661   -0.8988 H   0  0  0  0  0  0  0  0  0  0  0  0
   -1.7927    0.8326   -0.4959 H   0  0  0  0  0  0  0  0  0  0  0  0
   -1.0262   -1.2192   -1.7241 H   0  0  0  0  0  0  0  0  0  0  0  0
   -0.7287   -2.0110   -0.1711 H   0  0  0  0  0  0  0  0  0  0  0  0
   -2.3600   -1.5270   -0.6196 H   0  0  0  0  0  0  0  0  0  0  0  0
   -1.3833    1.0253    1.9361 H   0  0  0  0  0  0  0  0  0  0  0  0
   -0.9008   -0.6690    2.0034 H   0  0  0  0  0  0  0  0  0  0  0  0
   -2.5488   -0.2413    1.5551 H   0  0  0  0  0  0  0  0  0  0  0  0
    0.2412    0.8093   -2.1791 H   0  0  0  0  0  0  0  0  0  0  0  0
  1  2  1  0  0  0  0
  2  3  1  0  0  0  0
  3  4  1  0  0  0  0
  3  5  1  0  0  0  0
  5  6  1  0  0  0  0
  5  7  1  0  0  0  0
  3  8  1  0  0  0  0
  1  9  1  0  0  0  0
  1 10  1  0  0  0  0
  1 11  1  0  0  0  0
  2 12  1  0  0  0  0
  2 13  1  0  0  0  0
  5 14  1  0  0  0  0
  6 15  1  0  0  0  0
  6 16  1  0  0  0  0
  6 17  1  0  0  0  0
  7 18  1  0  0  0  0
  7 19  1  0  0  0  0
  7 20  1  0  0  0  0
  8 21  1  0  0  0  0
M  END
