  23
 
 C         -3.5811110270       -1.6177933948        0.5802419954
 O         -2.9520435756       -0.3600599957        0.4820156899
 C         -1.5830659888       -0.3332149966        0.3912252278
 C         -0.7607335446       -1.4345199618        0.3757368163
 C          0.6261642219       -1.2765517295        0.2795692351
 C          1.1536633083        0.0085174372        0.2020471095
 C          0.3359801383        1.1504427807        0.2142258870
 C         -1.0477140592        0.9698824725        0.3092092823
 O         -1.9153472170        2.0181207608        0.3255124185
 O          1.0001113041        2.3267508666        0.1286294332
 C          0.3068412982        3.5563266668        0.1580886230
 Cl         2.8476356791        0.2772100473        0.0871349460
 C          1.4587986042       -2.4829784827        0.2648963381
 O          1.0263326146       -3.6076364965        0.3349451574
 H         -4.6471440001       -1.4068278774        0.6475875918
 H         -3.2565016209       -2.1538626234        1.4762060892
 H         -3.3843436213       -2.2296996612       -0.3041620111
 H         -1.1378267310       -2.4421567731        0.4344702931
 H         -2.8089784307        1.6504552079        0.3972398072
 H          1.0832730453        4.3175864776        0.0908631134
 H         -0.2489061559        3.6816548763        1.0888477054
 H         -0.3756580863        3.6538770288       -0.6879406033
 H          2.5416291108       -2.2896053199        0.1847412611
          23
        -44.65369837
 C         -3.9219149905       -0.6101067501        0.0005544331
 O         -2.9775298670        0.4364615462       -0.0002151392
 C         -1.6471727161        0.0996539502        0.0000692015
 C         -1.1459398558       -1.1801170703       -0.0001428796
 C          0.2368709806       -1.3946237123       -0.0000587225
 C          1.0888731874       -0.2948362887        0.0002248200
 C          0.6029555480        1.0230269630        0.0001622834
 C         -0.7823733792        1.2149855767        0.0002587184
 O         -1.3416880404        2.4556326458        0.0005800069
 O          1.5584292981        1.9814658399        0.0000245473
 C          1.2143593462        3.3509051777       -0.0016319585
 Cl         2.7977872467       -0.4834417833        0.0007291906
 C          0.7208700244       -2.7783158714       -0.0005856908
 O          0.0037552584       -3.7490174080       -0.0008466137
 H         -3.8229600687       -1.2337058692       -0.8918338403
 H         -4.8963062355       -0.1245538896       -0.0006792832
 H         -3.8239351115       -1.2316648883        0.8946540271
 H         -1.7782667905       -2.0525828167       -0.0004083060
 H         -2.3033622991        2.3366246346        0.0005420975
 H          0.6464049527        3.6216078464       -0.8932679337
 H          2.1671332581        3.8786755785       -0.0011368968
 H          0.6445741771        3.6233702023        0.8882626260
 H          1.8189242761       -2.8778419379       -0.0008223428
