  23
 
 C          1.3510000000       -2.1260000000       -2.1500000000
 O          1.9390000000       -1.0210000000       -1.4740000000
 C          1.8850000000       -1.0360000000       -0.1120000000
 C          2.9210000000       -1.6310000000        0.6080000000
 C          2.8780000000       -1.6520000000        2.0020000000
 C          1.8000000000       -1.0790000000        2.6760000000
 C          0.7640000000       -0.4840000000        1.9550000000
 C          0.8070000000       -0.4630000000        0.5610000000
 O         -0.2050000000        0.1180000000       -0.1450000000
 O         -0.3000000000        0.0820000000        2.5960000000
 C         -1.4160000000       -0.7620000000        2.8640000000
 Cl         1.7360000000       -1.1010000000        4.4070000000
 C          3.9870000000       -2.2810000000        2.7090000000
 O          5.1530000000       -1.8970000000        2.6040000000
 H          1.4610000000       -1.9940000000       -3.2290000000
 H          0.2930000000       -2.1950000000       -1.8860000000
 H          1.8610000000       -3.0430000000       -1.8440000000
 H          3.7600000000       -2.0750000000        0.0770000000
 H         -0.0290000000        0.0510000000       -1.0970000000
 H         -2.1850000000       -0.1840000000        3.3750000000
 H         -1.0900000000       -1.5980000000        3.4840000000
 H         -1.8040000000       -1.1350000000        1.9160000000
 H          3.7470000000       -3.1440000000        3.3650000000
