 xtb: 6.7.1 (edcfbbe)
          04112512213D

 14 13  0     0  0            999 V2000
   -2.1565   -0.2431   -0.7177 C   0  0  0  0  0  0  0  0  0  0  0  0
   -1.5439   -0.1067    0.6716 C   0  0  0  0  0  0  0  0  0  0  0  0
   -0.2623    0.7264    0.6457 C   0  0  0  0  0  0  0  0  0  0  0  0
    0.8925   -0.0046    0.0044 C   0  0  0  0  0  0  0  0  0  0  0  0
    0.9017   -1.1863   -0.2500 O   0  0  0  0  0  0  0  0  0  0  0  0
    1.9711    0.7351   -0.2645 O   0  0  0  0  0  0  0  0  0  0  0  0
   -1.4568   -0.7369   -1.3884 H   0  0  0  0  0  0  0  0  0  0  0  0
   -2.4044    0.7334   -1.1277 H   0  0  0  0  0  0  0  0  0  0  0  0
   -3.0641   -0.8388   -0.6740 H   0  0  0  0  0  0  0  0  0  0  0  0
   -2.2623    0.3661    1.3423 H   0  0  0  0  0  0  0  0  0  0  0  0
   -1.3107   -1.0993    1.0607 H   0  0  0  0  0  0  0  0  0  0  0  0
   -0.4383    1.6616    0.1105 H   0  0  0  0  0  0  0  0  0  0  0  0
    0.0421    0.9668    1.6678 H   0  0  0  0  0  0  0  0  0  0  0  0
    1.8772    1.6744   -0.0224 H   0  0  0  0  0  0  0  0  0  0  0  0
  1  2  1  0  0  0  0
  2  3  1  0  0  0  0
  3  4  1  0  0  0  0
  4  5  2  0  0  0  0
  4  6  1  0  0  0  0
  1  7  1  0  0  0  0
  1  8  1  0  0  0  0
  1  9  1  0  0  0  0
  2 10  1  0  0  0  0
  2 11  1  0  0  0  0
  3 12  1  0  0  0  0
  3 13  1  0  0  0  0
  6 14  1  0  0  0  0
M  END
