14
 xtb: 6.7.1 (edcfbbe)
C           -1.43817040759044        0.09717896575538        0.63566911169511
C            0.06301083853261        0.29293477243348        0.54459861232348
C            0.78640169332707       -0.94514455077864        0.05500556167522
O            2.19589036250788       -0.64983175725632        0.07329235403451
O            0.29823468019067        1.40397808025544       -0.34197115762461
O           -2.03154398965197       -0.29354591576762       -0.61126095335190
H           -1.89561160100393        1.02587751827223        1.00403045011473
H           -1.65660665438419       -0.70023758484282        1.35172925459109
H            0.42852775622444        0.53893084047668        1.55493892231036
H            0.46382470673046       -1.19467009499309       -0.96309493154534
H            0.55716157433095       -1.78890177757975        0.72107367630769
H            2.64295448540910       -1.32372215516643       -0.45262396940713
H            1.24601432255758        1.41127627812834       -0.53562016863251
H           -1.81792335341455        0.39654392891073       -1.25342471739998
