18
 xtb: 6.7.1 (edcfbbe)
C            2.82564769549677       -0.21133691688966        0.20193103273174
C            1.49397188051522        0.32287824278218       -0.31831861440801
C            0.31025221891112       -0.50662279071813        0.17677587203173
C           -1.03977029364275       -0.04568756501803       -0.34877501934509
H           -1.00352328070125       -0.01411374089014       -1.44930159285841
C           -2.17206371965803       -0.95948573543436        0.09125282349484
O           -1.25735215316542        1.30067725564114        0.14486100936158
H            2.98546519943315       -1.24770509936739       -0.11689223459289
H            2.85378906472584       -0.19244390234934        1.29747212266147
H            3.66734264721689        0.38562598114239       -0.16399111487810
H            1.37270722447825        1.36622045442537       -0.00553825910371
H            1.49813235906725        0.32254335130470       -1.41638189768648
H            0.44777559704800       -1.55180419592009       -0.12836555750218
H            0.27992999076830       -0.49881036791318        1.27567138328928
H           -3.13754430251545       -0.57493516982312       -0.25498150317983
H           -2.03860208891497       -1.96263885115219       -0.32690095718459
H           -2.19932253490684       -1.03838479625328        1.18358837863014
H           -2.11523282613197        1.59052712300841       -0.19105634309974
