 xtb: 6.7.1 (edcfbbe)
          04112511583D

 20 19  0     0  0            999 V2000
    2.3766   -0.5026    0.4798 C   0  0  0  0  0  0  0  0  0  0  0  0
    1.5593    0.1658   -0.6214 C   0  0  0  0  0  0  0  0  0  0  0  0
    0.2762    0.8337   -0.1039 C   0  0  0  0  0  0  0  0  0  0  0  0
   -1.0044    0.0230   -0.3391 C   0  0  0  0  0  0  0  0  0  0  0  0
   -2.2207    0.8488    0.0796 C   0  0  0  0  0  0  0  0  0  0  0  0
   -0.9970   -1.3052    0.4134 C   0  0  0  0  0  0  0  0  0  0  0  0
    2.6957    0.2355    1.2126 H   0  0  0  0  0  0  0  0  0  0  0  0
    1.7973   -1.2644    0.9933 H   0  0  0  0  0  0  0  0  0  0  0  0
    3.2641   -0.9713    0.0598 H   0  0  0  0  0  0  0  0  0  0  0  0
    2.1883    0.9191   -1.1006 H   0  0  0  0  0  0  0  0  0  0  0  0
    1.3037   -0.5715   -1.3853 H   0  0  0  0  0  0  0  0  0  0  0  0
    0.3779    1.0339    0.9648 H   0  0  0  0  0  0  0  0  0  0  0  0
    0.1513    1.7974   -0.6028 H   0  0  0  0  0  0  0  0  0  0  0  0
   -1.0841   -0.1871   -1.4124 H   0  0  0  0  0  0  0  0  0  0  0  0
   -3.1398    0.3005   -0.1135 H   0  0  0  0  0  0  0  0  0  0  0  0
   -2.2586    1.7860   -0.4709 H   0  0  0  0  0  0  0  0  0  0  0  0
   -2.1741    1.0767    1.1425 H   0  0  0  0  0  0  0  0  0  0  0  0
   -0.8613   -1.1353    1.4794 H   0  0  0  0  0  0  0  0  0  0  0  0
   -1.9420   -1.8241    0.2673 H   0  0  0  0  0  0  0  0  0  0  0  0
   -0.1998   -1.9516    0.0573 H   0  0  0  0  0  0  0  0  0  0  0  0
  1  2  1  0  0  0  0
  2  3  1  0  0  0  0
  3  4  1  0  0  0  0
  4  5  1  0  0  0  0
  4  6  1  0  0  0  0
  1  7  1  0  0  0  0
  1  8  1  0  0  0  0
  1  9  1  0  0  0  0
  2 10  1  0  0  0  0
  2 11  1  0  0  0  0
  3 12  1  0  0  0  0
  3 13  1  0  0  0  0
  4 14  1  0  0  0  0
  5 15  1  0  0  0  0
  5 16  1  0  0  0  0
  5 17  1  0  0  0  0
  6 18  1  0  0  0  0
  6 19  1  0  0  0  0
  6 20  1  0  0  0  0
M  END
