  26
 
 C         -1.6437304947       -0.7622540200        1.2211760452
 C         -1.2209024335       -0.4473376909       -0.2119953595
 C         -2.3990763738        0.1599428929       -0.9770982893
 C          0.0357280931        0.4471058058       -0.2961711629
 C         -0.1747792882        1.7907707053        0.4068834900
 C          1.3089554063       -0.2425261554        0.2419494377
 C          1.5301021965       -1.6305628416       -0.3620916877
 C          2.5476652722        0.6107312021       -0.0410977509
 H         -0.8396267980       -1.2435777569        1.7713603714
 H         -1.9320033919        0.1434397860        1.7480381428
 H         -2.4987148206       -1.4356499681        1.2147645088
 H         -0.9824692772       -1.3904365115       -0.7121157296
 H         -2.0980942724        0.4532028477       -1.9806632670
 H         -2.8003506057        1.0324990115       -0.4678902811
 H         -3.2007029518       -0.5710002578       -1.0619406620
 H          0.2018397023        0.6461366082       -1.3625114933
 H          0.5766436441        2.5099919647        0.0941317583
 H         -0.1097695286        1.6760387986        1.4861745462
 H         -1.1458434328        2.2094716090        0.1613068225
 H          1.2154889416       -0.3498257500        1.3279402104
 H          2.5098421334       -2.0068978505       -0.0743411602
 H          0.7890889028       -2.3449523259       -0.0145142011
 H          1.4899374062       -1.5843424423       -1.4485812720
 H          3.4443626020        0.0884721697        0.2862487103
 H          2.5080352807        1.5608386084        0.4829535049
 H          2.6378918883        0.8053980881       -1.1080574111
          26
        -26.32130293
 C         -1.6480742625       -0.6433917814        1.2958492739
 C         -1.2165947432       -0.4723283853       -0.1590215016
 C         -2.3932649454        0.0433839514       -0.9903701508
 C          0.0321386505        0.4220399256       -0.3250999441
 C         -0.1833009506        1.8120398249        0.2792165789
 C          1.3161781672       -0.2193265090        0.2456253040
 C          1.5676517385       -1.6222173503       -0.3105259103
 C          2.5392202308        0.6490367304       -0.0589532653
 H         -0.8388907118       -1.0435604962        1.9009598073
 H         -1.9641114570        0.3054312802        1.7212004666
 H         -2.4864608116       -1.3348927108        1.3538723131
 H         -0.9670131882       -1.4595840374       -0.5577549513
 H         -2.0906880283        0.2171322951       -2.0208287082
 H         -2.7929273401        0.9704830346       -0.5873064250
 H         -3.1961863427       -0.6910273025       -0.9904217176
 H          0.1853165843        0.5431378864       -1.4049580327
 H          0.5530992568        2.5151711056       -0.0996225993
 H         -0.0997291691        1.7788699809        1.3629545384
 H         -1.1642943123        2.1988717040        0.0199458664
 H          1.2181662396       -0.2916514770        1.3340408208
 H          2.5550198192       -1.9679179458       -0.0109622037
 H          0.8422450317       -2.3404078824        0.0613297838
 H          1.5263217277       -1.6139545821       -1.3979315396
 H          2.6254028340        0.8205021043       -1.1301495803
 H          3.4451405317        0.1502003033        0.2794090352
 H          2.4833028831        1.6098020835        0.4436429689
