  28
 
 C         -5.4453366428       -0.2645081954       -0.0053454535
 C         -4.1477570107        0.5339795094       -0.0178733099
 C         -2.9234473636       -0.3777710107       -0.0161521133
 C         -1.6142858278        0.4075472973       -0.0266127760
 C         -0.3970619383       -0.5137451579        0.0023634503
 C          0.9131155567        0.2680512791       -0.0035537772
 C          2.1269844398       -0.6543040989        0.0594084814
 C          3.4361971334        0.1036948423        0.1127488331
 O          3.5024223315        1.2947071363        0.2756249167
 C          4.6610757463       -0.7631118092       -0.0655135647
 H         -6.3061909396        0.3999138824       -0.0037834785
 H         -5.4966306755       -0.8944090594        0.8802835532
 H         -5.5075775215       -0.9046660454       -0.8829162234
 H         -4.1220182291        1.1721691655       -0.9040876108
 H         -4.1134519812        1.1851585780        0.8585978209
 H         -2.9534839087       -1.0157496207        0.8707377790
 H         -2.9601466686       -1.0302643116       -0.8921219156
 H         -1.5734719183        1.0332856351       -0.9211539223
 H         -1.5835167992        1.0713425000        0.8404912544
 H         -0.4425359293       -1.1385488559        0.8982014117
 H         -0.4278793902       -1.1786775986       -0.8647984013
 H          0.9746481016        0.8781144652       -0.9069098832
 H          0.9420603019        0.9482849099        0.8494683653
 H          2.0735617583       -1.2763961968        0.9579317551
 H          2.1446488538       -1.3296200710       -0.7992293410
 H          4.7826475684       -0.9745335446       -1.1272718151
 H          4.5507524917       -1.7080485022        0.4595767474
 H          5.5466176403       -0.2391640318        0.2852126567
          28
        -32.51992776
 C         -5.4545246649       -0.2384361583       -0.0355184711
 C         -4.1466649675        0.5343330190        0.0835826101
 C         -2.9313321309       -0.3804849841       -0.0467491027
 C         -1.6176672059        0.3888134716        0.0688695440
 C         -0.4023051239       -0.5259956942       -0.0602409686
 C          0.9068579313        0.2491087696        0.0543016725
 C          2.1244215825       -0.6620362074       -0.0717737615
 C          3.4311458951        0.1009819064       -0.0237961173
 O          3.4961659991        1.3015286983       -0.0800630554
 C          4.6550845655       -0.7743888553        0.1083455376
 H         -5.5220844271       -0.9963953092        0.7419664143
 H         -5.5180117312       -0.7343303040       -1.0017395816
 H         -6.3060113564        0.4307979113        0.0630385869
 H         -4.1055950958        1.3004133754       -0.6939478964
 H         -4.1122388142        1.0428123769        1.0497628817
 H         -2.9720542360       -1.1456043765        0.7324474449
 H         -2.9674819890       -0.8912017941       -1.0121326593
 H         -1.5768716293        1.1532995512       -0.7103039119
 H         -1.5824918304        0.9005341620        1.0334130453
 H         -0.4421208152       -1.2901800731        0.7203921585
 H         -0.4382758715       -1.0381828629       -1.0251406669
 H          0.9550262128        1.0117955143       -0.7247419152
 H          0.9464544114        0.7648219985        1.0157830824
 H          2.1259893215       -1.4172573040        0.7175673269
 H          2.0924244259       -1.1940261862       -1.0273220659
 H          4.7339996995       -1.1068341252        1.1422785544
 H          5.5489851636       -0.2094846394       -0.1421180903
 H          4.5764494065       -1.6529417130       -0.5261296823
