 25

C     -5.234000     4.032000     0.547000
C     -3.803000     4.009000     0.036000
C     -3.502000     2.721000    -0.731000
C     -2.061000     2.702000    -1.244000
C     -1.762000     1.411000    -2.011000
C     -0.331000     1.361000    -2.537000
C     -0.024000     0.088000    -3.298000
O     -0.877000    -0.787000    -3.450000
C      1.358000    -0.061000    -3.879000
H     -5.440000     4.957000     1.094000
H     -5.425000     3.187000     1.216000
H     -5.937000     3.969000    -0.290000
H     -3.639000     4.876000    -0.615000
H     -3.116000     4.106000     0.884000
H     -3.671000     1.857000    -0.077000
H     -4.195000     2.627000    -1.576000
H     -1.373000     2.800000    -0.395000
H     -1.893000     3.566000    -1.899000
H     -1.962000     0.547000    -1.368000
H     -2.447000     1.335000    -2.865000
H     -0.146000     2.206000    -3.210000
H      0.384000     1.455000    -1.711000
H      2.013000    -0.542000    -3.147000
H      1.318000    -0.677000    -4.780000
H      1.769000     0.925000    -4.112000
