 xtb: 6.7.1 (edcfbbe)
          04072507503D

 21 20  0     0  0            999 V2000
    1.8823   -0.1800   -1.2467 C   0  0  0  0  0  0  0  0  0  0  0  0
    1.0307   -0.2081    0.0234 C   0  0  0  0  0  0  0  0  0  0  0  0
    1.8830    0.0861    1.2587 C   0  0  0  0  0  0  0  0  0  0  0  0
    0.0057    0.7846   -0.0816 O   0  0  0  0  0  0  0  0  0  0  0  0
   -1.3515    0.3622   -0.0382 C   0  0  0  0  0  0  0  0  0  0  0  0
   -1.7343   -0.5396   -1.2147 C   0  0  0  0  0  0  0  0  0  0  0  0
   -1.7361   -0.2749    1.2998 C   0  0  0  0  0  0  0  0  0  0  0  0
    1.2718   -0.4087   -2.1162 H   0  0  0  0  0  0  0  0  0  0  0  0
    2.3083    0.8114   -1.3753 H   0  0  0  0  0  0  0  0  0  0  0  0
    2.6844   -0.9085   -1.1742 H   0  0  0  0  0  0  0  0  0  0  0  0
    0.5802   -1.2016    0.1290 H   0  0  0  0  0  0  0  0  0  0  0  0
    2.3082    1.0827    1.1763 H   0  0  0  0  0  0  0  0  0  0  0  0
    2.6856   -0.6409    1.3401 H   0  0  0  0  0  0  0  0  0  0  0  0
    1.2731    0.0444    2.1573 H   0  0  0  0  0  0  0  0  0  0  0  0
   -1.8870    1.3146   -0.1388 H   0  0  0  0  0  0  0  0  0  0  0  0
   -2.8100   -0.6865   -1.2215 H   0  0  0  0  0  0  0  0  0  0  0  0
   -1.4365   -0.0728   -2.1503 H   0  0  0  0  0  0  0  0  0  0  0  0
   -1.2523   -1.5114   -1.1385 H   0  0  0  0  0  0  0  0  0  0  0  0
   -1.2550   -1.2416    1.4279 H   0  0  0  0  0  0  0  0  0  0  0  0
   -2.8120   -0.4165    1.3359 H   0  0  0  0  0  0  0  0  0  0  0  0
   -1.4388    0.3761    2.1181 H   0  0  0  0  0  0  0  0  0  0  0  0
  1  2  1  0  0  0  0
  2  3  1  0  0  0  0
  2  4  1  0  0  0  0
  4  5  1  0  0  0  0
  5  6  1  0  0  0  0
  5  7  1  0  0  0  0
  1  8  1  0  0  0  0
  1  9  1  0  0  0  0
  1 10  1  0  0  0  0
  2 11  1  0  0  0  0
  3 12  1  0  0  0  0
  3 13  1  0  0  0  0
  3 14  1  0  0  0  0
  5 15  1  0  0  0  0
  6 16  1  0  0  0  0
  6 17  1  0  0  0  0
  6 18  1  0  0  0  0
  7 19  1  0  0  0  0
  7 20  1  0  0  0  0
  7 21  1  0  0  0  0
M  END
