21
 xtb: 6.7.1 (edcfbbe)
C            1.72906230859192       -1.17752255394637       -0.14877287448198
C            1.23373750406285        0.10597385097431        0.48519616433785
H            1.06126631529235       -0.06863022541916        1.55914168775510
C           -0.05050918367025        0.66364818768469       -0.12532346616365
C           -1.28929752686925       -0.24321281918523        0.04045580907656
C           -2.53182067906537        0.59076155775708        0.35923620702082
C           -1.54394127237166       -1.09767210987594       -1.20366619256017
O            2.30693406006071        1.07216255524505        0.34113926562050
H            2.68432667431388       -1.47401710045050        0.29623279613761
H            1.01571848991723       -1.98905934181875        0.01725974594111
H            1.86939805823171       -1.04971031237354       -1.22788403625619
H           -0.24350023055681        1.62956453461257        0.36040663157935
H            0.12407700763753        0.87206103410966       -1.18987863210338
H           -1.10824925190898       -0.91553252985046        0.89182749785407
H           -2.73217112872613        1.30463667426665       -0.44948268985841
H           -2.40078100577409        1.16023450118558        1.28549621561278
H           -3.41700069650220       -0.04496637821501        0.47258274819130
H           -2.38192395303667       -1.78449606055459       -1.04156043547097
H           -1.79730416485233       -0.45458641237737       -2.05517433479466
H           -0.67030900547003       -1.69250038621387       -1.48471725752025
H            1.99621211938335        1.90245739398941        0.72601019592806
