 9

C      0.009000    -1.071000    -0.222000
C     -1.114000    -1.734000     0.527000
O     -2.291000    -1.580000     0.210000
N     -0.696000    -2.499000     1.590000
H      0.213000    -0.096000     0.231000
H      0.901000    -1.699000    -0.156000
H     -0.240000    -0.917000    -1.275000
H     -1.366000    -2.994000     2.170000
H      0.282000    -2.600000     1.841000
