  9
 
 C          0.0090000000       -1.0710000000       -0.2220000000
 C         -1.1140000000       -1.7340000000        0.5270000000
 O         -2.2910000000       -1.5800000000        0.2100000000
 N         -0.6960000000       -2.4990000000        1.5900000000
 H          0.2130000000       -0.0960000000        0.2310000000
 H          0.9010000000       -1.6990000000       -0.1560000000
 H         -0.2400000000       -0.9170000000       -1.2750000000
 H         -1.3660000000       -2.9940000000        2.1700000000
 H          0.2820000000       -2.6000000000        1.8410000000
