 xtb: 6.7.1 (edcfbbe)
          04112511533D

 15 14  0     0  0            999 V2000
   -2.1517   -0.7995    0.2774 C   0  0  0  0  0  0  0  0  0  0  0  0
   -1.2057   -0.2009   -0.7457 C   0  0  0  0  0  0  0  0  0  0  0  0
   -0.0001    0.9573   -0.0008 S   0  0  0  0  0  0  0  0  0  0  0  0
    1.2054   -0.1997    0.7462 C   0  0  0  0  0  0  0  0  0  0  0  0
    2.1513   -0.8002   -0.2758 C   0  0  0  0  0  0  0  0  0  0  0  0
   -2.8773   -1.4363   -0.2231 H   0  0  0  0  0  0  0  0  0  0  0  0
   -1.6112   -1.4003    1.0055 H   0  0  0  0  0  0  0  0  0  0  0  0
   -2.6806   -0.0101    0.8060 H   0  0  0  0  0  0  0  0  0  0  0  0
   -1.7475    0.4055   -1.4700 H   0  0  0  0  0  0  0  0  0  0  0  0
   -0.6410   -0.9668   -1.2748 H   0  0  0  0  0  0  0  0  0  0  0  0
    1.7472    0.4080    1.4694 H   0  0  0  0  0  0  0  0  0  0  0  0
    0.6406   -0.9645    1.2766 H   0  0  0  0  0  0  0  0  0  0  0  0
    2.6803   -0.0118   -0.8058 H   0  0  0  0  0  0  0  0  0  0  0  0
    2.8769   -1.4361    0.2259 H   0  0  0  0  0  0  0  0  0  0  0  0
    1.6108   -1.4022   -1.0028 H   0  0  0  0  0  0  0  0  0  0  0  0
  1  2  1  0  0  0  0
  2  3  1  0  0  0  0
  3  4  1  0  0  0  0
  4  5  1  0  0  0  0
  1  6  1  0  0  0  0
  1  7  1  0  0  0  0
  1  8  1  0  0  0  0
  2  9  1  0  0  0  0
  2 10  1  0  0  0  0
  4 11  1  0  0  0  0
  4 12  1  0  0  0  0
  5 13  1  0  0  0  0
  5 14  1  0  0  0  0
  5 15  1  0  0  0  0
M  END
