 xtb: 6.7.1 (edcfbbe)
          04112512213D

 19 18  0     0  0            999 V2000
    1.5912    0.7534   -0.9726 C   0  0  0  0  0  0  0  0  0  0  0  0
    1.3918    0.1294    0.4073 C   0  0  0  0  0  0  0  0  0  0  0  0
    1.6749   -1.3699    0.3717 C   0  0  0  0  0  0  0  0  0  0  0  0
   -0.0198    0.4368    0.9390 C   0  0  0  0  0  0  0  0  0  0  0  0
   -1.1542    0.0451    0.0201 C   0  0  0  0  0  0  0  0  0  0  0  0
   -1.1866   -0.9940   -0.6094 O   0  0  0  0  0  0  0  0  0  0  0  0
   -2.2718    1.0463   -0.0448 C   0  0  0  0  0  0  0  0  0  0  0  0
    2.6129    0.6025   -1.3117 H   0  0  0  0  0  0  0  0  0  0  0  0
    0.9210    0.2924   -1.6955 H   0  0  0  0  0  0  0  0  0  0  0  0
    1.3923    1.8223   -0.9449 H   0  0  0  0  0  0  0  0  0  0  0  0
    2.1015    0.5951    1.1011 H   0  0  0  0  0  0  0  0  0  0  0  0
    2.6830   -1.5541    0.0076 H   0  0  0  0  0  0  0  0  0  0  0  0
    0.9716   -1.8718   -0.2877 H   0  0  0  0  0  0  0  0  0  0  0  0
    1.5839   -1.8018    1.3660 H   0  0  0  0  0  0  0  0  0  0  0  0
   -0.0981    1.5001    1.1650 H   0  0  0  0  0  0  0  0  0  0  0  0
   -0.1708   -0.1179    1.8692 H   0  0  0  0  0  0  0  0  0  0  0  0
   -3.1116    0.6428   -0.6039 H   0  0  0  0  0  0  0  0  0  0  0  0
   -2.5849    1.3192    0.9593 H   0  0  0  0  0  0  0  0  0  0  0  0
   -1.9073    1.9439   -0.5400 H   0  0  0  0  0  0  0  0  0  0  0  0
  1  2  1  0  0  0  0
  2  3  1  0  0  0  0
  2  4  1  0  0  0  0
  4  5  1  0  0  0  0
  5  6  2  0  0  0  0
  5  7  1  0  0  0  0
  1  8  1  0  0  0  0
  1  9  1  0  0  0  0
  1 10  1  0  0  0  0
  2 11  1  0  0  0  0
  3 12  1  0  0  0  0
  3 13  1  0  0  0  0
  3 14  1  0  0  0  0
  4 15  1  0  0  0  0
  4 16  1  0  0  0  0
  7 17  1  0  0  0  0
  7 18  1  0  0  0  0
  7 19  1  0  0  0  0
M  END
