 xtb: 6.7.1 (edcfbbe)
          04112512203D

 18 17  0     0  0            999 V2000
   -1.9758    1.4465    0.0762 C   0  0  0  0  0  0  0  0  0  0  0  0
   -1.4845    0.0833   -0.3996 C   0  0  0  0  0  0  0  0  0  0  0  0
   -0.1600   -0.3511    0.2383 C   0  0  0  0  0  0  0  0  0  0  0  0
   -0.2102   -0.1539    1.3158 H   0  0  0  0  0  0  0  0  0  0  0  0
    0.0739   -1.8465    0.0273 C   0  0  0  0  0  0  0  0  0  0  0  0
    1.0223    0.4397   -0.3381 C   0  0  0  0  0  0  0  0  0  0  0  0
    2.2451    0.1650    0.3140 O   0  0  0  0  0  0  0  0  0  0  0  0
   -2.9424    1.6702   -0.3683 H   0  0  0  0  0  0  0  0  0  0  0  0
   -2.0869    1.4545    1.1581 H   0  0  0  0  0  0  0  0  0  0  0  0
   -1.2848    2.2367   -0.2053 H   0  0  0  0  0  0  0  0  0  0  0  0
   -1.3704    0.0932   -1.4857 H   0  0  0  0  0  0  0  0  0  0  0  0
   -2.2418   -0.6641   -0.1538 H   0  0  0  0  0  0  0  0  0  0  0  0
   -0.6642   -2.4324    0.5690 H   0  0  0  0  0  0  0  0  0  0  0  0
    1.0663   -2.1223    0.3765 H   0  0  0  0  0  0  0  0  0  0  0  0
    0.0044   -2.0908   -1.0304 H   0  0  0  0  0  0  0  0  0  0  0  0
    0.8167    1.5168   -0.3008 H   0  0  0  0  0  0  0  0  0  0  0  0
    1.1823    0.1569   -1.3818 H   0  0  0  0  0  0  0  0  0  0  0  0
    2.1717    0.4343    1.2399 H   0  0  0  0  0  0  0  0  0  0  0  0
  1  2  1  0  0  0  0
  2  3  1  0  0  0  0
  3  4  1  0  0  0  0
  3  5  1  0  0  0  0
  3  6  1  0  0  0  0
  6  7  1  0  0  0  0
  1  8  1  0  0  0  0
  1  9  1  0  0  0  0
  1 10  1  0  0  0  0
  2 11  1  0  0  0  0
  2 12  1  0  0  0  0
  5 13  1  0  0  0  0
  5 14  1  0  0  0  0
  5 15  1  0  0  0  0
  6 16  1  0  0  0  0
  6 17  1  0  0  0  0
  7 18  1  0  0  0  0
M  END
