 xtb: 6.7.1 (edcfbbe)
          04112511203D

 21 20  0     0  0            999 V2000
   -2.6116   -0.4801   -0.5238 C   0  0  0  0  0  0  0  0  0  0  0  0
   -1.6419    0.6916   -0.4064 C   0  0  0  0  0  0  0  0  0  0  0  0
   -0.5605    0.4778    0.6615 C   0  0  0  0  0  0  0  0  0  0  0  0
    0.8108   -0.0232    0.1618 C   0  0  0  0  0  0  0  0  0  0  0  0
    1.5165    1.0446   -0.6820 C   0  0  0  0  0  0  0  0  0  0  0  0
    0.7025   -1.3303   -0.6226 C   0  0  0  0  0  0  0  0  0  0  0  0
    1.6151   -0.3336    1.3028 O   0  0  0  0  0  0  0  0  0  0  0  0
   -3.3592   -0.2733   -1.2863 H   0  0  0  0  0  0  0  0  0  0  0  0
   -3.1249   -0.6419    0.4216 H   0  0  0  0  0  0  0  0  0  0  0  0
   -2.0932   -1.3958   -0.7916 H   0  0  0  0  0  0  0  0  0  0  0  0
   -1.1803    0.8783   -1.3762 H   0  0  0  0  0  0  0  0  0  0  0  0
   -2.2167    1.5831   -0.1477 H   0  0  0  0  0  0  0  0  0  0  0  0
   -0.3857    1.4211    1.1861 H   0  0  0  0  0  0  0  0  0  0  0  0
   -0.9219   -0.2409    1.4007 H   0  0  0  0  0  0  0  0  0  0  0  0
    0.9858    1.2146   -1.6133 H   0  0  0  0  0  0  0  0  0  0  0  0
    2.5260    0.7134   -0.9141 H   0  0  0  0  0  0  0  0  0  0  0  0
    1.5736    1.9857   -0.1388 H   0  0  0  0  0  0  0  0  0  0  0  0
    1.7022   -1.6869   -0.8577 H   0  0  0  0  0  0  0  0  0  0  0  0
    0.1523   -1.1823   -1.5452 H   0  0  0  0  0  0  0  0  0  0  0  0
    0.2081   -2.0835   -0.0151 H   0  0  0  0  0  0  0  0  0  0  0  0
    1.7591    0.4719    1.8169 H   0  0  0  0  0  0  0  0  0  0  0  0
  1  2  1  0  0  0  0
  2  3  1  0  0  0  0
  3  4  1  0  0  0  0
  4  5  1  0  0  0  0
  4  6  1  0  0  0  0
  4  7  1  0  0  0  0
  1  8  1  0  0  0  0
  1  9  1  0  0  0  0
  1 10  1  0  0  0  0
  2 11  1  0  0  0  0
  2 12  1  0  0  0  0
  3 13  1  0  0  0  0
  3 14  1  0  0  0  0
  5 15  1  0  0  0  0
  5 16  1  0  0  0  0
  5 17  1  0  0  0  0
  6 18  1  0  0  0  0
  6 19  1  0  0  0  0
  6 20  1  0  0  0  0
  7 21  1  0  0  0  0
M  END
