 xtb: 6.7.1 (edcfbbe)
          04112511033D

 20 20  0     0  0            999 V2000
    2.5808   -1.5028   -0.0854 C   0  0  0  0  0  0  0  0  0  0  0  0
    1.1779   -1.3693    0.0447 O   0  0  0  0  0  0  0  0  0  0  0  0
    0.6408   -0.1167    0.0392 C   0  0  0  0  0  0  0  0  0  0  0  0
    1.3554    1.0593   -0.1524 C   0  0  0  0  0  0  0  0  0  0  0  0
    0.7030    2.2817   -0.1576 C   0  0  0  0  0  0  0  0  0  0  0  0
   -0.6636    2.3512    0.0308 C   0  0  0  0  0  0  0  0  0  0  0  0
   -1.3864    1.1862    0.2297 C   0  0  0  0  0  0  0  0  0  0  0  0
   -0.7487   -0.0419    0.2399 C   0  0  0  0  0  0  0  0  0  0  0  0
   -1.4525   -1.2113    0.4908 O   0  0  0  0  0  0  0  0  0  0  0  0
   -2.2439   -1.6669   -0.5950 C   0  0  0  0  0  0  0  0  0  0  0  0
    2.9252   -1.1266   -1.0522 H   0  0  0  0  0  0  0  0  0  0  0  0
    2.7713   -2.5715   -0.0194 H   0  0  0  0  0  0  0  0  0  0  0  0
    3.1024   -0.9852    0.7233 H   0  0  0  0  0  0  0  0  0  0  0  0
    2.4219    1.0302   -0.3046 H   0  0  0  0  0  0  0  0  0  0  0  0
    1.2757    3.1829   -0.3111 H   0  0  0  0  0  0  0  0  0  0  0  0
   -1.1693    3.3034    0.0282 H   0  0  0  0  0  0  0  0  0  0  0  0
   -2.4531    1.2190    0.3914 H   0  0  0  0  0  0  0  0  0  0  0  0
   -2.9624   -0.9049   -0.9099 H   0  0  0  0  0  0  0  0  0  0  0  0
   -2.7706   -2.5443   -0.2278 H   0  0  0  0  0  0  0  0  0  0  0  0
   -1.6116   -1.9427   -1.4447 H   0  0  0  0  0  0  0  0  0  0  0  0
  1  2  1  0  0  0  0
  2  3  1  0  0  0  0
  3  4  4  0  0  0  0
  4  5  4  0  0  0  0
  5  6  4  0  0  0  0
  6  7  4  0  0  0  0
  3  8  4  0  0  0  0
  7  8  4  0  0  0  0
  8  9  1  0  0  0  0
  9 10  1  0  0  0  0
  1 11  1  0  0  0  0
  1 12  1  0  0  0  0
  1 13  1  0  0  0  0
  4 14  1  0  0  0  0
  5 15  1  0  0  0  0
  6 16  1  0  0  0  0
  7 17  1  0  0  0  0
 10 18  1  0  0  0  0
 10 19  1  0  0  0  0
 10 20  1  0  0  0  0
M  END
