 xtb: 6.7.1 (edcfbbe)
          04112511193D

 14 13  0     0  0            999 V2000
   -1.4432    0.3741   -0.2145 C   0  0  0  0  0  0  0  0  0  0  0  0
    0.0078    0.3842    0.2906 C   0  0  0  0  0  0  0  0  0  0  0  0
    0.8125   -0.7272   -0.4046 C   0  0  0  0  0  0  0  0  0  0  0  0
    2.0975   -0.9062    0.1501 O   0  0  0  0  0  0  0  0  0  0  0  0
    0.5247    1.6726    0.0199 O   0  0  0  0  0  0  0  0  0  0  0  0
   -2.1251   -0.8167    0.0835 O   0  0  0  0  0  0  0  0  0  0  0  0
   -1.4385    0.4618   -1.3033 H   0  0  0  0  0  0  0  0  0  0  0  0
   -1.9589    1.2494    0.1975 H   0  0  0  0  0  0  0  0  0  0  0  0
    0.0180    0.1930    1.3736 H   0  0  0  0  0  0  0  0  0  0  0  0
    0.8711   -0.5084   -1.4759 H   0  0  0  0  0  0  0  0  0  0  0  0
    0.2804   -1.6710   -0.2670 H   0  0  0  0  0  0  0  0  0  0  0  0
    2.6909   -0.2225   -0.1892 H   0  0  0  0  0  0  0  0  0  0  0  0
    1.3438    1.8008    0.5181 H   0  0  0  0  0  0  0  0  0  0  0  0
   -2.2754   -0.8737    1.0377 H   0  0  0  0  0  0  0  0  0  0  0  0
  1  2  1  0  0  0  0
  2  3  1  0  0  0  0
  3  4  1  0  0  0  0
  2  5  1  0  0  0  0
  1  6  1  0  0  0  0
  1  7  1  0  0  0  0
  1  8  1  0  0  0  0
  2  9  1  0  0  0  0
  3 10  1  0  0  0  0
  3 11  1  0  0  0  0
  4 12  1  0  0  0  0
  5 13  1  0  0  0  0
  6 14  1  0  0  0  0
M  END
