 xtb: 6.7.1 (edcfbbe)
          04112511233D

 24 24  0     0  0            999 V2000
    2.8590   -0.8482   -1.1237 C   0  0  0  0  0  0  0  0  0  0  0  0
    2.0603   -0.2455    0.0297 C   0  0  0  0  0  0  0  0  0  0  0  0
    3.0037    0.3560    1.0689 C   0  0  0  0  0  0  0  0  0  0  0  0
    1.0546    0.8159   -0.4858 C   0  0  0  0  0  0  0  0  0  0  0  0
   -0.3615    0.4098   -0.1979 C   0  0  0  0  0  0  0  0  0  0  0  0
   -0.9930    0.8142    0.9719 C   0  0  0  0  0  0  0  0  0  0  0  0
   -2.2842    0.4067    1.2576 C   0  0  0  0  0  0  0  0  0  0  0  0
   -2.9640   -0.4161    0.3757 C   0  0  0  0  0  0  0  0  0  0  0  0
   -2.3442   -0.8277   -0.7922 C   0  0  0  0  0  0  0  0  0  0  0  0
   -1.0535   -0.4173   -1.0747 C   0  0  0  0  0  0  0  0  0  0  0  0
    3.4449   -0.0786   -1.6220 H   0  0  0  0  0  0  0  0  0  0  0  0
    2.1943   -1.3063   -1.8524 H   0  0  0  0  0  0  0  0  0  0  0  0
    3.5397   -1.6130   -0.7561 H   0  0  0  0  0  0  0  0  0  0  0  0
    1.4940   -1.0518    0.5103 H   0  0  0  0  0  0  0  0  0  0  0  0
    3.5868    1.1629    0.6299 H   0  0  0  0  0  0  0  0  0  0  0  0
    2.4423    0.7507    1.9126 H   0  0  0  0  0  0  0  0  0  0  0  0
    3.6910   -0.4005    1.4411 H   0  0  0  0  0  0  0  0  0  0  0  0
    1.1826    0.9451   -1.5612 H   0  0  0  0  0  0  0  0  0  0  0  0
    1.2599    1.7742   -0.0076 H   0  0  0  0  0  0  0  0  0  0  0  0
   -0.4686    1.4575    1.6640 H   0  0  0  0  0  0  0  0  0  0  0  0
   -2.7619    0.7328    2.1699 H   0  0  0  0  0  0  0  0  0  0  0  0
   -3.9721   -0.7339    0.5965 H   0  0  0  0  0  0  0  0  0  0  0  0
   -2.8691   -1.4687   -1.4854 H   0  0  0  0  0  0  0  0  0  0  0  0
   -0.5764   -0.7402   -1.9890 H   0  0  0  0  0  0  0  0  0  0  0  0
  1  2  1  0  0  0  0
  2  3  1  0  0  0  0
  2  4  1  0  0  0  0
  4  5  1  0  0  0  0
  5  6  4  0  0  0  0
  6  7  4  0  0  0  0
  7  8  4  0  0  0  0
  8  9  4  0  0  0  0
  5 10  4  0  0  0  0
  9 10  4  0  0  0  0
  1 11  1  0  0  0  0
  1 12  1  0  0  0  0
  1 13  1  0  0  0  0
  2 14  1  0  0  0  0
  3 15  1  0  0  0  0
  3 16  1  0  0  0  0
  3 17  1  0  0  0  0
  4 18  1  0  0  0  0
  4 19  1  0  0  0  0
  6 20  1  0  0  0  0
  7 21  1  0  0  0  0
  8 22  1  0  0  0  0
  9 23  1  0  0  0  0
 10 24  1  0  0  0  0
M  END
