25
 xtb: 6.7.1 (edcfbbe)
C            3.41989697736926        1.03706190634128       -0.25040713648586
C            2.59432108255375       -0.12117194985330        0.23516556769213
C            3.11683456156213       -1.06222314324042        1.02806181351219
C            1.15309036706704       -0.12903672355497       -0.22468023170946
H            1.16404605768701       -0.01193020144483       -1.31971261438910
C            0.37288621337929       -1.40392725613765        0.09868824929314
C           -1.00596805758350       -1.37325855335563       -0.55846995551614
C           -1.72035345039594       -0.07695083855684       -0.28399071378656
C           -1.07092985768711        1.01992707159757        0.15024508060981
C            0.40068974982176        1.09054099006190        0.34617630817434
C           -3.17121006587872       -0.04612243894395       -0.48120198830754
O           -3.89974797409426        0.93055963846016       -0.31401921199706
H            3.05808820063313        1.98475814582115        0.16557796918249
H            4.46968776606290        0.92360315035156        0.03110567521492
H            3.35562117954428        1.12926524034554       -1.34129553098984
H            2.53782744583993       -1.90388580135405        1.39396080380617
H            4.15760091641339       -1.00930640369753        1.33722097473243
H            0.92444867586616       -2.28520967482023       -0.24379446078565
H            0.25374375556165       -1.49322130602490        1.18637472876710
H           -0.91090374723377       -1.52036037186167       -1.64331124173189
H           -1.61928534471841       -2.20572681945213       -0.19237083566787
H           -1.64573169333946        1.91681598992556        0.37444424016660
H            0.76604268057726        2.02337799271982       -0.10070549054251
H            0.60503609951505        1.18963335857290        1.42469292368615
H           -3.61646328023192       -1.00666931707347       -0.81220166795328
