 xtb: 6.7.1 (edcfbbe)
          04112512143D

 21 20  0     0  0            999 V2000
    2.2809   -1.0077   -0.6490 C   0  0  0  0  0  0  0  0  0  0  0  0
    1.5985    0.3253   -0.3680 C   0  0  0  0  0  0  0  0  0  0  0  0
    0.3522    0.2045    0.5217 C   0  0  0  0  0  0  0  0  0  0  0  0
    0.6330   -0.3371    1.4341 H   0  0  0  0  0  0  0  0  0  0  0  0
   -0.8212   -0.5558   -0.1355 C   0  0  0  0  0  0  0  0  0  0  0  0
   -1.8953   -0.8379    0.9149 C   0  0  0  0  0  0  0  0  0  0  0  0
   -1.4330    0.1993   -1.3152 C   0  0  0  0  0  0  0  0  0  0  0  0
   -0.0431    1.4825    0.9914 O   0  0  0  0  0  0  0  0  0  0  0  0
    1.6544   -1.6492   -1.2628 H   0  0  0  0  0  0  0  0  0  0  0  0
    2.5002   -1.5263    0.2813 H   0  0  0  0  0  0  0  0  0  0  0  0
    3.2155   -0.8402   -1.1784 H   0  0  0  0  0  0  0  0  0  0  0  0
    2.2985    0.9822    0.1543 H   0  0  0  0  0  0  0  0  0  0  0  0
    1.3336    0.8082   -1.3106 H   0  0  0  0  0  0  0  0  0  0  0  0
   -0.4281   -1.5109   -0.4945 H   0  0  0  0  0  0  0  0  0  0  0  0
   -2.7524   -1.3300    0.4624 H   0  0  0  0  0  0  0  0  0  0  0  0
   -1.5027   -1.4779    1.7016 H   0  0  0  0  0  0  0  0  0  0  0  0
   -2.2246    0.0950    1.3676 H   0  0  0  0  0  0  0  0  0  0  0  0
   -1.8996    1.1226   -0.9790 H   0  0  0  0  0  0  0  0  0  0  0  0
   -2.2023   -0.4130   -1.7794 H   0  0  0  0  0  0  0  0  0  0  0  0
   -0.6868    0.4305   -2.0710 H   0  0  0  0  0  0  0  0  0  0  0  0
   -0.2344    2.0414    0.2256 H   0  0  0  0  0  0  0  0  0  0  0  0
  1  2  1  0  0  0  0
  2  3  1  0  0  0  0
  3  4  1  0  0  0  0
  3  5  1  0  0  0  0
  5  6  1  0  0  0  0
  5  7  1  0  0  0  0
  3  8  1  0  0  0  0
  1  9  1  0  0  0  0
  1 10  1  0  0  0  0
  1 11  1  0  0  0  0
  2 12  1  0  0  0  0
  2 13  1  0  0  0  0
  5 14  1  0  0  0  0
  6 15  1  0  0  0  0
  6 16  1  0  0  0  0
  6 17  1  0  0  0  0
  7 18  1  0  0  0  0
  7 19  1  0  0  0  0
  7 20  1  0  0  0  0
  8 21  1  0  0  0  0
M  END
