 xtb: 6.7.1 (edcfbbe)
          04112511573D

 14 13  0     0  0            999 V2000
    2.0396   -0.3403    0.5234 C   0  0  0  0  0  0  0  0  0  0  0  0
    1.3076    0.1990   -0.5594 O   0  0  0  0  0  0  0  0  0  0  0  0
    0.0058    0.6423   -0.2313 C   0  0  0  0  0  0  0  0  0  0  0  0
   -0.9936   -0.4954    0.0616 C   0  0  0  0  0  0  0  0  0  0  0  0
   -2.3728   -0.0547    0.1670 N   0  0  0  0  0  0  0  0  0  0  0  0
    1.6258   -1.2973    0.8527 H   0  0  0  0  0  0  0  0  0  0  0  0
    2.0559    0.3581    1.3669 H   0  0  0  0  0  0  0  0  0  0  0  0
    3.0506   -0.4907    0.1522 H   0  0  0  0  0  0  0  0  0  0  0  0
    0.0498    1.3315    0.6267 H   0  0  0  0  0  0  0  0  0  0  0  0
   -0.3250    1.1987   -1.1137 H   0  0  0  0  0  0  0  0  0  0  0  0
   -0.9275   -1.2317   -0.7437 H   0  0  0  0  0  0  0  0  0  0  0  0
   -0.7319   -0.9886    1.0010 H   0  0  0  0  0  0  0  0  0  0  0  0
   -2.6595    0.3854   -0.7008 H   0  0  0  0  0  0  0  0  0  0  0  0
   -2.4549    0.6404    0.9015 H   0  0  0  0  0  0  0  0  0  0  0  0
  1  2  1  0  0  0  0
  2  3  1  0  0  0  0
  3  4  1  0  0  0  0
  4  5  1  0  0  0  0
  1  6  1  0  0  0  0
  1  7  1  0  0  0  0
  1  8  1  0  0  0  0
  3  9  1  0  0  0  0
  3 10  1  0  0  0  0
  4 11  1  0  0  0  0
  4 12  1  0  0  0  0
  5 13  1  0  0  0  0
  5 14  1  0  0  0  0
M  END
