26
 xtb: 6.7.1 (edcfbbe)
C            0.56085296258391        1.42433458768795        1.05162505150467
C            1.91311735461126        1.65275469235990        1.21747110874945
C            2.84882129164729        0.86396627642219        0.54374283456127
C            2.39997560983763       -0.16770999949536       -0.31254369052822
C            1.02211442277578       -0.38041132378988       -0.46302397787560
C            0.08912865828010        0.40122236169075        0.20755665933395
C           -1.35401183174201        0.16992566548165        0.00335830962254
C           -1.87987097174447       -0.07464600026223       -1.27298941093904
C           -3.23305826463295       -0.30940079568267       -1.48317084393587
C           -4.07399135990173       -0.29495461605203       -0.38422099123243
C           -3.62352731207133       -0.06518594819511        0.90381164380155
C           -2.26736422458913        0.16014736736498        1.05940174730819
F           -1.81327187268618        0.34487590223931        2.32347740760064
F           -5.39842079215860       -0.51482915555096       -0.56864332612560
C            3.38210668926375       -0.99279803635482       -1.01327581330662
O            4.60364780907771       -0.84709373576976       -0.90302367441606
O            2.85510670269591       -1.94079339244371       -1.80558357773559
O            4.16069893296846        1.12832401197956        0.74257107195676
H           -0.14595234185026        2.06435435327204        1.56819844134108
H            2.26907347134823        2.44898377878894        1.86243085140869
H            0.68363571004840       -1.18339230725006       -1.10707487361484
H           -1.20738813617778       -0.06302193252108       -2.12438389021087
H           -3.62976887312183       -0.48815821456851       -2.47583225291910
H           -4.29423419967985       -0.07329944712291        1.75504243420645
H            3.58628640257377       -2.42995475644884       -2.22074959616458
H            4.66582390322549        0.48070328732760        0.19351407200910
