 xtb: 6.7.1 (edcfbbe)
          04112512243D

 23 22  0     0  0            999 V2000
    2.1419   -0.2358    1.0835 C   0  0  0  0  0  0  0  0  0  0  0  0
    1.4364    0.7997    0.2134 C   0  0  0  0  0  0  0  0  0  0  0  0
    0.2472    0.2651   -0.6048 C   0  0  0  0  0  0  0  0  0  0  0  0
   -0.0904    1.0848   -1.2518 H   0  0  0  0  0  0  0  0  0  0  0  0
    0.7073   -0.8812   -1.5082 C   0  0  0  0  0  0  0  0  0  0  0  0
   -0.9442   -0.1361    0.2888 C   0  0  0  0  0  0  0  0  0  0  0  0
   -1.5423    1.0861    1.0112 C   0  0  0  0  0  0  0  0  0  0  0  0
   -2.0445   -0.8371   -0.5108 C   0  0  0  0  0  0  0  0  0  0  0  0
    1.4596   -0.6689    1.8100 H   0  0  0  0  0  0  0  0  0  0  0  0
    2.5611   -1.0359    0.4803 H   0  0  0  0  0  0  0  0  0  0  0  0
    2.9552    0.2391    1.6280 H   0  0  0  0  0  0  0  0  0  0  0  0
    2.1646    1.2186   -0.4861 H   0  0  0  0  0  0  0  0  0  0  0  0
    1.0999    1.6166    0.8537 H   0  0  0  0  0  0  0  0  0  0  0  0
    1.6570   -0.6269   -1.9744 H   0  0  0  0  0  0  0  0  0  0  0  0
    0.8372   -1.7973   -0.9374 H   0  0  0  0  0  0  0  0  0  0  0  0
   -0.0131   -1.0670   -2.2996 H   0  0  0  0  0  0  0  0  0  0  0  0
   -0.5793   -0.8487    1.0345 H   0  0  0  0  0  0  0  0  0  0  0  0
   -0.9829    1.9925    0.7970 H   0  0  0  0  0  0  0  0  0  0  0  0
   -1.5489    0.9439    2.0886 H   0  0  0  0  0  0  0  0  0  0  0  0
   -2.5670    1.2559    0.6902 H   0  0  0  0  0  0  0  0  0  0  0  0
   -2.3709   -0.2103   -1.3385 H   0  0  0  0  0  0  0  0  0  0  0  0
   -2.8999   -1.0302    0.1332 H   0  0  0  0  0  0  0  0  0  0  0  0
   -1.7045   -1.7892   -0.9069 H   0  0  0  0  0  0  0  0  0  0  0  0
  1  2  1  0  0  0  0
  2  3  1  0  0  0  0
  3  4  1  0  0  0  0
  3  5  1  0  0  0  0
  3  6  1  0  0  0  0
  6  7  1  0  0  0  0
  6  8  1  0  0  0  0
  1  9  1  0  0  0  0
  1 10  1  0  0  0  0
  1 11  1  0  0  0  0
  2 12  1  0  0  0  0
  2 13  1  0  0  0  0
  5 14  1  0  0  0  0
  5 15  1  0  0  0  0
  5 16  1  0  0  0  0
  6 17  1  0  0  0  0
  7 18  1  0  0  0  0
  7 19  1  0  0  0  0
  7 20  1  0  0  0  0
  8 21  1  0  0  0  0
  8 22  1  0  0  0  0
  8 23  1  0  0  0  0
M  END
