 xtb: 6.7.1 (edcfbbe)
          04112512143D

 21 20  0     0  0            999 V2000
    1.9352    1.1304   -0.3190 C   0  0  0  0  0  0  0  0  0  0  0  0
    1.4094   -0.3023   -0.2831 C   0  0  0  0  0  0  0  0  0  0  0  0
    2.0618   -0.9156   -0.9283 H   0  0  0  0  0  0  0  0  0  0  0  0
   -0.0246   -0.4159   -0.8301 C   0  0  0  0  0  0  0  0  0  0  0  0
   -1.1019    0.2481    0.0457 C   0  0  0  0  0  0  0  0  0  0  0  0
   -2.1587    0.9230   -0.8272 C   0  0  0  0  0  0  0  0  0  0  0  0
   -1.7627   -0.7657    0.9786 C   0  0  0  0  0  0  0  0  0  0  0  0
    1.5210   -0.7665    1.0535 O   0  0  0  0  0  0  0  0  0  0  0  0
    1.9186    1.5063   -1.3372 H   0  0  0  0  0  0  0  0  0  0  0  0
    1.3314    1.7750    0.3124 H   0  0  0  0  0  0  0  0  0  0  0  0
    2.9555    1.1497    0.0543 H   0  0  0  0  0  0  0  0  0  0  0  0
   -0.0223    0.0400   -1.8210 H   0  0  0  0  0  0  0  0  0  0  0  0
   -0.2710   -1.4725   -0.9589 H   0  0  0  0  0  0  0  0  0  0  0  0
   -0.6291    1.0133    0.6679 H   0  0  0  0  0  0  0  0  0  0  0  0
   -2.9253    1.3830   -0.2078 H   0  0  0  0  0  0  0  0  0  0  0  0
   -2.6354    0.1925   -1.4773 H   0  0  0  0  0  0  0  0  0  0  0  0
   -1.7094    1.6965   -1.4456 H   0  0  0  0  0  0  0  0  0  0  0  0
   -2.5204   -0.2785    1.5885 H   0  0  0  0  0  0  0  0  0  0  0  0
   -2.2426   -1.5569    0.4053 H   0  0  0  0  0  0  0  0  0  0  0  0
   -1.0265   -1.2073    1.6444 H   0  0  0  0  0  0  0  0  0  0  0  0
    1.3175   -1.7103    1.0744 H   0  0  0  0  0  0  0  0  0  0  0  0
  1  2  1  0  0  0  0
  2  3  1  0  0  0  0
  2  4  1  0  0  0  0
  4  5  1  0  0  0  0
  5  6  1  0  0  0  0
  5  7  1  0  0  0  0
  2  8  1  0  0  0  0
  1  9  1  0  0  0  0
  1 10  1  0  0  0  0
  1 11  1  0  0  0  0
  4 12  1  0  0  0  0
  4 13  1  0  0  0  0
  5 14  1  0  0  0  0
  6 15  1  0  0  0  0
  6 16  1  0  0  0  0
  6 17  1  0  0  0  0
  7 18  1  0  0  0  0
  7 19  1  0  0  0  0
  7 20  1  0  0  0  0
  8 21  1  0  0  0  0
M  END
