23
 xtb: 6.7.1 (edcfbbe)
C            2.02640801159371       -0.15903430722346        1.21368063838841
C            1.46306114295327        0.76408763744012        0.13509877008995
C            0.26907632875612        0.19101326325375       -0.65245321267876
H           -0.05951633576119        0.98363263671774       -1.34291326452213
C            0.70569281715751       -1.01098586523555       -1.49800618438866
C           -0.94554271992340       -0.14875622958885        0.24022044563981
C           -1.36820968378622        1.03874652021726        1.10840439192332
C           -2.13939453205719       -0.62148485460027       -0.59431402125264
H            2.89475652694205        0.29992273780968        1.69774292376970
H            1.28845899792679       -0.36928235669433        1.99488987874292
H            2.35171687102397       -1.11760840518825        0.79588235951124
H            2.25733370399327        0.99885684207843       -0.58521448335163
H            1.17702895843090        1.71922109662655        0.59015084313128
H            1.64694940980905       -0.79751819902635       -2.01702621661093
H            0.85995273555636       -1.90165456111686       -0.87789609731635
H           -0.03762327367508       -1.26356218658323       -2.25920432042079
H           -0.65260884088965       -0.97395722423087        0.90570224108437
H           -0.59533843599729        1.32391943249708        1.82788833845695
H           -2.27350967625697        0.79751771119392        1.67597803578295
H           -1.58839430133578        1.91461301367795        0.48503496807270
H           -3.00902598701591       -0.80355756105946        0.04623081722353
H           -1.92819250381035       -1.54895601325553       -1.13368203087792
H           -2.42097937959465        0.14189681096217       -1.33081526888051
