 xtb: 6.7.1 (edcfbbe)
          04112511193D

 14 13  0     0  0            999 V2000
   -1.0727   -0.4475   -0.3195 C   0  0  0  0  0  0  0  0  0  0  0  0
    0.1321    0.3123    0.2572 C   0  0  0  0  0  0  0  0  0  0  0  0
    1.4639   -0.1407   -0.3675 C   0  0  0  0  0  0  0  0  0  0  0  0
    1.8930   -1.4040    0.0763 O   0  0  0  0  0  0  0  0  0  0  0  0
   -0.0584    1.7028    0.0943 O   0  0  0  0  0  0  0  0  0  0  0  0
   -2.2745   -0.0631    0.3059 O   0  0  0  0  0  0  0  0  0  0  0  0
   -0.9728   -1.5200   -0.1462 H   0  0  0  0  0  0  0  0  0  0  0  0
   -1.1382   -0.2623   -1.4029 H   0  0  0  0  0  0  0  0  0  0  0  0
    0.1721    0.1508    1.3398 H   0  0  0  0  0  0  0  0  0  0  0  0
    2.2426    0.5602   -0.0556 H   0  0  0  0  0  0  0  0  0  0  0  0
    1.3854   -0.1175   -1.4631 H   0  0  0  0  0  0  0  0  0  0  0  0
    1.3131   -2.0937   -0.2732 H   0  0  0  0  0  0  0  0  0  0  0  0
    0.0107    1.9287   -0.8451 H   0  0  0  0  0  0  0  0  0  0  0  0
   -2.2660    0.9020    0.4046 H   0  0  0  0  0  0  0  0  0  0  0  0
  1  2  1  0  0  0  0
  2  3  1  0  0  0  0
  3  4  1  0  0  0  0
  2  5  1  0  0  0  0
  1  6  1  0  0  0  0
  1  7  1  0  0  0  0
  1  8  1  0  0  0  0
  2  9  1  0  0  0  0
  3 10  1  0  0  0  0
  3 11  1  0  0  0  0
  4 12  1  0  0  0  0
  5 13  1  0  0  0  0
  6 14  1  0  0  0  0
M  END
