 xtb: 6.7.1 (edcfbbe)
          04112511223D

 22 21  0     0  0            999 V2000
    1.7632    1.5308    0.2634 C   0  0  0  0  0  0  0  0  0  0  0  0
    1.3017    0.0924    0.5252 C   0  0  0  0  0  0  0  0  0  0  0  0
    2.3613   -0.9037    0.0525 C   0  0  0  0  0  0  0  0  0  0  0  0
    0.0104   -0.1329   -0.2429 C   0  0  0  0  0  0  0  0  0  0  0  0
    0.0071   -0.2429   -1.4520 O   0  0  0  0  0  0  0  0  0  0  0  0
   -1.2811   -0.1704    0.5563 C   0  0  0  0  0  0  0  0  0  0  0  0
   -2.1335   -1.3557    0.1020 C   0  0  0  0  0  0  0  0  0  0  0  0
   -2.0243    1.1487    0.3145 C   0  0  0  0  0  0  0  0  0  0  0  0
    1.0380    2.2456    0.6439 H   0  0  0  0  0  0  0  0  0  0  0  0
    1.8818    1.6913   -0.8059 H   0  0  0  0  0  0  0  0  0  0  0  0
    2.7167    1.7070    0.7536 H   0  0  0  0  0  0  0  0  0  0  0  0
    1.1260   -0.0393    1.5952 H   0  0  0  0  0  0  0  0  0  0  0  0
    2.0589   -1.9217    0.2875 H   0  0  0  0  0  0  0  0  0  0  0  0
    2.4872   -0.8229   -1.0248 H   0  0  0  0  0  0  0  0  0  0  0  0
    3.3120   -0.6993    0.5367 H   0  0  0  0  0  0  0  0  0  0  0  0
   -1.0571   -0.2663    1.6211 H   0  0  0  0  0  0  0  0  0  0  0  0
   -1.6309   -2.2941    0.3254 H   0  0  0  0  0  0  0  0  0  0  0  0
   -3.0948   -1.3434    0.6080 H   0  0  0  0  0  0  0  0  0  0  0  0
   -2.2971   -1.3009   -0.9718 H   0  0  0  0  0  0  0  0  0  0  0  0
   -2.1987    1.2839   -0.7506 H   0  0  0  0  0  0  0  0  0  0  0  0
   -2.9814    1.1321    0.8285 H   0  0  0  0  0  0  0  0  0  0  0  0
   -1.4456    1.9924    0.6820 H   0  0  0  0  0  0  0  0  0  0  0  0
  1  2  1  0  0  0  0
  2  3  1  0  0  0  0
  2  4  1  0  0  0  0
  4  5  2  0  0  0  0
  4  6  1  0  0  0  0
  6  7  1  0  0  0  0
  6  8  1  0  0  0  0
  1  9  1  0  0  0  0
  1 10  1  0  0  0  0
  1 11  1  0  0  0  0
  2 12  1  0  0  0  0
  3 13  1  0  0  0  0
  3 14  1  0  0  0  0
  3 15  1  0  0  0  0
  6 16  1  0  0  0  0
  7 17  1  0  0  0  0
  7 18  1  0  0  0  0
  7 19  1  0  0  0  0
  8 20  1  0  0  0  0
  8 21  1  0  0  0  0
  8 22  1  0  0  0  0
M  END
