 xtb: 6.7.1 (edcfbbe)
          04112513103D

 17 16  0     0  0            999 V2000
   -2.9928    0.1457   -0.0993 C   0  0  0  0  0  0  0  0  0  0  0  0
   -1.6581    0.6059    0.4701 C   0  0  0  0  0  0  0  0  0  0  0  0
   -0.4907   -0.0849   -0.1859 C   0  0  0  0  0  0  0  0  0  0  0  0
   -0.5651   -0.9261   -1.0567 O   0  0  0  0  0  0  0  0  0  0  0  0
    0.6650    0.3424    0.3117 O   0  0  0  0  0  0  0  0  0  0  0  0
    1.8728   -0.2309   -0.2178 C   0  0  0  0  0  0  0  0  0  0  0  0
    3.0495    0.3964    0.5039 C   0  0  0  0  0  0  0  0  0  0  0  0
   -3.1108   -0.9263    0.0357 H   0  0  0  0  0  0  0  0  0  0  0  0
   -3.8093    0.6582    0.3998 H   0  0  0  0  0  0  0  0  0  0  0  0
   -3.0409    0.3547   -1.1648 H   0  0  0  0  0  0  0  0  0  0  0  0
   -1.5989    0.4033    1.5409 H   0  0  0  0  0  0  0  0  0  0  0  0
   -1.5230    1.6802    0.3350 H   0  0  0  0  0  0  0  0  0  0  0  0
    1.8347   -1.3152   -0.0696 H   0  0  0  0  0  0  0  0  0  0  0  0
    1.9046   -0.0359   -1.2949 H   0  0  0  0  0  0  0  0  0  0  0  0
    2.9819    0.1961    1.5690 H   0  0  0  0  0  0  0  0  0  0  0  0
    3.9725   -0.0227    0.1174 H   0  0  0  0  0  0  0  0  0  0  0  0
    3.0501    1.4712    0.3491 H   0  0  0  0  0  0  0  0  0  0  0  0
  1  2  1  0  0  0  0
  2  3  1  0  0  0  0
  3  4  2  0  0  0  0
  3  5  1  0  0  0  0
  5  6  1  0  0  0  0
  6  7  1  0  0  0  0
  1  8  1  0  0  0  0
  1  9  1  0  0  0  0
  1 10  1  0  0  0  0
  2 11  1  0  0  0  0
  2 12  1  0  0  0  0
  6 13  1  0  0  0  0
  6 14  1  0  0  0  0
  7 15  1  0  0  0  0
  7 16  1  0  0  0  0
  7 17  1  0  0  0  0
M  END
