 xtb: 6.7.1 (edcfbbe)
          04112512153D

 21 20  0     0  0            999 V2000
    2.2713   -1.1121    0.4816 C   0  0  0  0  0  0  0  0  0  0  0  0
    1.4989   -0.2525   -0.5117 C   0  0  0  0  0  0  0  0  0  0  0  0
    0.2908    0.4712    0.1087 C   0  0  0  0  0  0  0  0  0  0  0  0
    0.3781    0.4363    1.2066 H   0  0  0  0  0  0  0  0  0  0  0  0
   -1.0615   -0.1547   -0.2929 C   0  0  0  0  0  0  0  0  0  0  0  0
   -1.1563   -1.6047    0.1759 C   0  0  0  0  0  0  0  0  0  0  0  0
   -2.2321    0.6438    0.2854 C   0  0  0  0  0  0  0  0  0  0  0  0
    0.3830    1.8254   -0.3148 O   0  0  0  0  0  0  0  0  0  0  0  0
    3.1156   -1.5835   -0.0151 H   0  0  0  0  0  0  0  0  0  0  0  0
    1.6398   -1.8904    0.9009 H   0  0  0  0  0  0  0  0  0  0  0  0
    2.6513   -0.5007    1.2966 H   0  0  0  0  0  0  0  0  0  0  0  0
    2.1590    0.5246   -0.9026 H   0  0  0  0  0  0  0  0  0  0  0  0
    1.1727   -0.8574   -1.3586 H   0  0  0  0  0  0  0  0  0  0  0  0
   -1.1258   -0.1238   -1.3864 H   0  0  0  0  0  0  0  0  0  0  0  0
   -0.3908   -2.2218   -0.2840 H   0  0  0  0  0  0  0  0  0  0  0  0
   -1.0457   -1.6578    1.2569 H   0  0  0  0  0  0  0  0  0  0  0  0
   -2.1270   -2.0160   -0.0900 H   0  0  0  0  0  0  0  0  0  0  0  0
   -2.2806    1.6420   -0.1424 H   0  0  0  0  0  0  0  0  0  0  0  0
   -2.1412    0.7221    1.3673 H   0  0  0  0  0  0  0  0  0  0  0  0
   -3.1690    0.1412    0.0579 H   0  0  0  0  0  0  0  0  0  0  0  0
   -0.2822    2.3513    0.1475 H   0  0  0  0  0  0  0  0  0  0  0  0
  1  2  1  0  0  0  0
  2  3  1  0  0  0  0
  3  4  1  0  0  0  0
  3  5  1  0  0  0  0
  5  6  1  0  0  0  0
  5  7  1  0  0  0  0
  3  8  1  0  0  0  0
  1  9  1  0  0  0  0
  1 10  1  0  0  0  0
  1 11  1  0  0  0  0
  2 12  1  0  0  0  0
  2 13  1  0  0  0  0
  5 14  1  0  0  0  0
  6 15  1  0  0  0  0
  6 16  1  0  0  0  0
  6 17  1  0  0  0  0
  7 18  1  0  0  0  0
  7 19  1  0  0  0  0
  7 20  1  0  0  0  0
  8 21  1  0  0  0  0
M  END
