 20

C     -4.536000     3.985000     4.414000
C     -3.408000     3.218000     3.749000
C     -3.083000     1.931000     4.493000
O     -2.016000     1.261000     3.814000
C     -1.614000     0.081000     4.372000
O     -2.082000    -0.434000     5.378000
C     -0.490000    -0.494000     3.542000
C      0.016000    -1.813000     4.099000
H     -4.758000     4.908000     3.869000
H     -5.447000     3.377000     4.438000
H     -4.278000     4.249000     5.445000
H     -2.511000     3.847000     3.695000
H     -3.676000     2.986000     2.712000
H     -2.766000     2.142000     5.519000
H     -3.952000     1.265000     4.518000
H     -0.856000    -0.648000     2.522000
H      0.332000     0.230000     3.523000
H      0.829000    -2.214000     3.486000
H      0.390000    -1.678000     5.119000
H     -0.784000    -2.561000     4.125000
