 xtb: 6.7.1 (edcfbbe)
          04112511493D

 12 11  0     0  0            999 V2000
   -2.4709    0.0011    1.2926 C   0  0  0  0  0  0  0  0  0  0  0  0
   -1.0613   -0.0004    0.9639 O   0  0  0  0  0  0  0  0  0  0  0  0
   -0.7441   -0.0006   -0.3147 C   0  0  0  0  0  0  0  0  0  0  0  0
    0.7722    0.0000   -0.5356 C   0  0  0  0  0  0  0  0  0  0  0  0
    1.4469    1.4556    0.2047 Cl  0  0  0  0  0  0  0  0  0  0  0  0
    1.4484   -1.4543    0.2057 Cl  0  0  0  0  0  0  0  0  0  0  0  0
   -1.2860   -1.0727   -0.9958 F   0  0  0  0  0  0  0  0  0  0  0  0
   -1.2872    1.0701   -0.9970 F   0  0  0  0  0  0  0  0  0  0  0  0
   -2.4926   -0.0073    2.3770 H   0  0  0  0  0  0  0  0  0  0  0  0
   -2.9475   -0.8902    0.8853 H   0  0  0  0  0  0  0  0  0  0  0  0
   -2.9420    0.9014    0.8991 H   0  0  0  0  0  0  0  0  0  0  0  0
    1.0014   -0.0003   -1.6036 H   0  0  0  0  0  0  0  0  0  0  0  0
  1  2  1  0  0  0  0
  2  3  1  0  0  0  0
  3  4  1  0  0  0  0
  4  5  1  0  0  0  0
  4  6  1  0  0  0  0
  3  7  1  0  0  0  0
  3  8  1  0  0  0  0
  1  9  1  0  0  0  0
  1 10  1  0  0  0  0
  1 11  1  0  0  0  0
  4 12  1  0  0  0  0
M  END
