 xtb: 6.7.1 (edcfbbe)
          04112512193D

 17 16  0     0  0            999 V2000
   -2.4746    0.2348    0.9674 C   0  0  0  0  0  0  0  0  0  0  0  0
   -1.7668    0.6483   -0.3265 C   0  0  0  0  0  0  0  0  0  0  0  0
   -0.5204   -0.1809   -0.4946 C   0  0  0  0  0  0  0  0  0  0  0  0
   -0.4535   -1.2175   -1.1242 O   0  0  0  0  0  0  0  0  0  0  0  0
    0.5064    0.3412    0.1584 O   0  0  0  0  0  0  0  0  0  0  0  0
    1.7601   -0.3615    0.1256 C   0  0  0  0  0  0  0  0  0  0  0  0
    2.8409    0.5723    0.6354 C   0  0  0  0  0  0  0  0  0  0  0  0
   -2.7319   -0.8213    0.9353 H   0  0  0  0  0  0  0  0  0  0  0  0
   -1.8289    0.4126    1.8234 H   0  0  0  0  0  0  0  0  0  0  0  0
   -3.3853    0.8136    1.0872 H   0  0  0  0  0  0  0  0  0  0  0  0
   -1.4862    1.6992   -0.2753 H   0  0  0  0  0  0  0  0  0  0  0  0
   -2.4175    0.4711   -1.1819 H   0  0  0  0  0  0  0  0  0  0  0  0
    1.6689   -1.2536    0.7536 H   0  0  0  0  0  0  0  0  0  0  0  0
    1.9489   -0.6850   -0.9033 H   0  0  0  0  0  0  0  0  0  0  0  0
    2.9070    1.4497   -0.0011 H   0  0  0  0  0  0  0  0  0  0  0  0
    2.6087    0.8904    1.6473 H   0  0  0  0  0  0  0  0  0  0  0  0
    3.7942    0.0543    0.6315 H   0  0  0  0  0  0  0  0  0  0  0  0
  1  2  1  0  0  0  0
  2  3  1  0  0  0  0
  3  4  2  0  0  0  0
  3  5  1  0  0  0  0
  5  6  1  0  0  0  0
  6  7  1  0  0  0  0
  1  8  1  0  0  0  0
  1  9  1  0  0  0  0
  1 10  1  0  0  0  0
  2 11  1  0  0  0  0
  2 12  1  0  0  0  0
  6 13  1  0  0  0  0
  6 14  1  0  0  0  0
  7 15  1  0  0  0  0
  7 16  1  0  0  0  0
  7 17  1  0  0  0  0
M  END
