 xtb: 6.7.1 (edcfbbe)
          04112511223D

 15 14  0     0  0            999 V2000
    2.3515   -0.2890   -0.0554 C   0  0  0  0  0  0  0  0  0  0  0  0
    0.8496   -0.5429    0.0052 C   0  0  0  0  0  0  0  0  0  0  0  0
    0.0642    0.7643   -0.0468 C   0  0  0  0  0  0  0  0  0  0  0  0
   -1.4254    0.6217    0.0083 C   0  0  0  0  0  0  0  0  0  0  0  0
   -2.1130   -0.5019    0.0941 C   0  0  0  0  0  0  0  0  0  0  0  0
    2.6686    0.3278    0.7827 H   0  0  0  0  0  0  0  0  0  0  0  0
    2.6151    0.2245   -0.9775 H   0  0  0  0  0  0  0  0  0  0  0  0
    2.8992   -1.2275   -0.0169 H   0  0  0  0  0  0  0  0  0  0  0  0
    0.5559   -1.1758   -0.8345 H   0  0  0  0  0  0  0  0  0  0  0  0
    0.6098   -1.0730    0.9290 H   0  0  0  0  0  0  0  0  0  0  0  0
    0.3197    1.3017   -0.9659 H   0  0  0  0  0  0  0  0  0  0  0  0
    0.3744    1.4042    0.7857 H   0  0  0  0  0  0  0  0  0  0  0  0
   -1.9561    1.5658   -0.0292 H   0  0  0  0  0  0  0  0  0  0  0  0
   -3.1894   -0.4996    0.1279 H   0  0  0  0  0  0  0  0  0  0  0  0
   -1.6432   -1.4690    0.1349 H   0  0  0  0  0  0  0  0  0  0  0  0
  1  2  1  0  0  0  0
  2  3  1  0  0  0  0
  3  4  1  0  0  0  0
  4  5  2  0  0  0  0
  1  6  1  0  0  0  0
  1  7  1  0  0  0  0
  1  8  1  0  0  0  0
  2  9  1  0  0  0  0
  2 10  1  0  0  0  0
  3 11  1  0  0  0  0
  3 12  1  0  0  0  0
  4 13  1  0  0  0  0
  5 14  1  0  0  0  0
  5 15  1  0  0  0  0
M  END
