 13

C     -1.266000    -1.058000     0.690000
C     -0.633000    -0.032000    -0.235000
C      0.830000     0.208000     0.114000
C      1.484000     1.225000    -0.790000
O      0.920000     1.806000    -1.711000
H     -2.317000    -1.225000     0.432000
H     -0.741000    -2.015000     0.610000
H     -1.216000    -0.730000     1.733000
H     -1.193000     0.909000    -0.169000
H     -0.719000    -0.378000    -1.272000
H      0.923000     0.575000     1.143000
H      1.402000    -0.722000     0.030000
H      2.546000     1.428000    -0.570000
