 xtb: 6.7.1 (edcfbbe)
          04112512423D

 17 16  0     0  0            999 V2000
   -2.7561   -0.1562   -0.6445 C   0  0  0  0  0  0  0  0  0  0  0  0
   -1.7058    0.7005    0.0538 C   0  0  0  0  0  0  0  0  0  0  0  0
   -0.4089   -0.0450    0.2425 C   0  0  0  0  0  0  0  0  0  0  0  0
   -0.3100   -1.2399    0.4238 O   0  0  0  0  0  0  0  0  0  0  0  0
    0.6307    0.7828    0.2145 O   0  0  0  0  0  0  0  0  0  0  0  0
    1.9472    0.2351    0.3996 C   0  0  0  0  0  0  0  0  0  0  0  0
    2.5169   -0.2827   -0.9122 C   0  0  0  0  0  0  0  0  0  0  0  0
   -2.8754   -1.0988   -0.1163 H   0  0  0  0  0  0  0  0  0  0  0  0
   -3.7091    0.3630   -0.6658 H   0  0  0  0  0  0  0  0  0  0  0  0
   -2.4520   -0.3749   -1.6649 H   0  0  0  0  0  0  0  0  0  0  0  0
   -2.0565    0.9738    1.0520 H   0  0  0  0  0  0  0  0  0  0  0  0
   -1.4999    1.6183   -0.4958 H   0  0  0  0  0  0  0  0  0  0  0  0
    2.5365    1.0658    0.7888 H   0  0  0  0  0  0  0  0  0  0  0  0
    1.8894   -0.5702    1.1382 H   0  0  0  0  0  0  0  0  0  0  0  0
    3.5342   -0.6246   -0.7526 H   0  0  0  0  0  0  0  0  0  0  0  0
    1.9176   -1.1148   -1.2751 H   0  0  0  0  0  0  0  0  0  0  0  0
    2.5157    0.5072   -1.6584 H   0  0  0  0  0  0  0  0  0  0  0  0
  1  2  1  0  0  0  0
  2  3  1  0  0  0  0
  3  4  2  0  0  0  0
  3  5  1  0  0  0  0
  5  6  1  0  0  0  0
  6  7  1  0  0  0  0
  1  8  1  0  0  0  0
  1  9  1  0  0  0  0
  1 10  1  0  0  0  0
  2 11  1  0  0  0  0
  2 12  1  0  0  0  0
  6 13  1  0  0  0  0
  6 14  1  0  0  0  0
  7 15  1  0  0  0  0
  7 16  1  0  0  0  0
  7 17  1  0  0  0  0
M  END
