 xtb: 6.7.1 (edcfbbe)
          04112512233D

 20 19  0     0  0            999 V2000
   -1.6021    0.4534    1.2432 C   0  0  0  0  0  0  0  0  0  0  0  0
   -1.6538   -0.5770    0.1180 C   0  0  0  0  0  0  0  0  0  0  0  0
   -2.9786   -0.4924   -0.6350 C   0  0  0  0  0  0  0  0  0  0  0  0
   -0.4970   -0.3672   -0.8641 C   0  0  0  0  0  0  0  0  0  0  0  0
    0.7589   -0.6697   -0.2443 O   0  0  0  0  0  0  0  0  0  0  0  0
    1.6225    0.3106   -0.0046 C   0  0  0  0  0  0  0  0  0  0  0  0
    1.4334    1.4701   -0.3092 O   0  0  0  0  0  0  0  0  0  0  0  0
    2.8503   -0.2054    0.6858 C   0  0  0  0  0  0  0  0  0  0  0  0
   -0.6618    0.3854    1.7868 H   0  0  0  0  0  0  0  0  0  0  0  0
   -2.4153    0.2885    1.9445 H   0  0  0  0  0  0  0  0  0  0  0  0
   -1.6880    1.4602    0.8394 H   0  0  0  0  0  0  0  0  0  0  0  0
   -1.5445   -1.5775    0.5486 H   0  0  0  0  0  0  0  0  0  0  0  0
   -3.0294   -1.2496   -1.4127 H   0  0  0  0  0  0  0  0  0  0  0  0
   -3.0873    0.4863   -1.0961 H   0  0  0  0  0  0  0  0  0  0  0  0
   -3.8069   -0.6446    0.0510 H   0  0  0  0  0  0  0  0  0  0  0  0
   -0.5847   -1.0518   -1.7110 H   0  0  0  0  0  0  0  0  0  0  0  0
   -0.4740    0.6666   -1.2231 H   0  0  0  0  0  0  0  0  0  0  0  0
    3.6300    0.5483    0.6548 H   0  0  0  0  0  0  0  0  0  0  0  0
    3.1772   -1.1246    0.2098 H   0  0  0  0  0  0  0  0  0  0  0  0
    2.6016   -0.4281    1.7208 H   0  0  0  0  0  0  0  0  0  0  0  0
  1  2  1  0  0  0  0
  2  3  1  0  0  0  0
  2  4  1  0  0  0  0
  4  5  1  0  0  0  0
  5  6  1  0  0  0  0
  6  7  2  0  0  0  0
  6  8  1  0  0  0  0
  1  9  1  0  0  0  0
  1 10  1  0  0  0  0
  1 11  1  0  0  0  0
  2 12  1  0  0  0  0
  3 13  1  0  0  0  0
  3 14  1  0  0  0  0
  3 15  1  0  0  0  0
  4 16  1  0  0  0  0
  4 17  1  0  0  0  0
  8 18  1  0  0  0  0
  8 19  1  0  0  0  0
  8 20  1  0  0  0  0
M  END
