  13
 
 C         -1.3832303237       -0.0281809664       -0.0924676679
 N         -0.0021294488       -0.0013633268        0.3381641627
 C          0.6611582724        1.2082465035       -0.0971470464
 C          0.7098872247       -1.1810014596       -0.1024957009
 H         -1.8618004011       -0.9259319294        0.2965425721
 H         -1.4877219700       -0.0227753363       -1.1899458482
 H         -1.8997467279        0.8426580029        0.3089114141
 H          1.6791103505        1.2170009108        0.2899814818
 H          0.1298859776        2.0707761823        0.3029557658
 H          0.7025851077        1.3004188595       -1.1948748540
 H          1.7279299591       -1.1488337480        0.2832177578
 H          0.7535699334       -1.2676118118       -1.2005229093
 H          0.2154688461       -2.0661558054        0.2954307441
          13
        -13.92469527
 C         -0.8627595417       -1.0766868518       -0.0875490609
 N          0.0000151789       -0.0000125697        0.3489523773
 C         -0.5011276377        1.2854711179       -0.0875509485
 C          1.3638644288       -0.2087627780       -0.0875489800
 H         -1.8650146787       -0.9131325500        0.3060360024
 H         -0.4846852893       -2.0191301037        0.3061568023
 H         -0.9253772128       -1.1549551793       -1.1853625949
 H         -0.5384728332        1.3785385952       -1.1853670126
 H          0.1421681211        2.0715753090        0.3052755779
 H         -1.5059853651        1.4296566875        0.3069925081
 H          1.4631111534       -0.2236306785       -1.1853922275
 H          1.7232072654       -1.1586794185        0.3057997203
 H          1.9911090155        0.5896759482        0.3064503193
