  13
 
 C         -0.2720000000       -0.2550000000        1.0310000000
 N          0.9010000000       -0.5170000000        1.8640000000
 C          1.7510000000        0.6710000000        1.9380000000
 C          1.6570000000       -1.6540000000        1.3400000000
 H         -0.9030000000       -1.1460000000        0.9800000000
 H          0.0370000000        0.0160000000        0.0180000000
 H         -0.8570000000        0.5670000000        1.4510000000
 H          2.6110000000        0.4480000000        2.5610000000
 H          1.1810000000        1.4860000000        2.3700000000
 H          2.0760000000        0.9350000000        0.9370000000
 H          2.5190000000       -1.8250000000        1.9760000000
 H          1.9800000000       -1.4280000000        0.3290000000
 H          1.0180000000       -2.5310000000        1.3370000000
