 xtb: 6.7.1 (edcfbbe)
          04112511493D

 17 16  0     0  0            999 V2000
   -2.6558   -0.3337   -0.7443 C   0  0  0  0  0  0  0  0  0  0  0  0
   -1.9979    0.5817    0.2811 C   0  0  0  0  0  0  0  0  0  0  0  0
   -0.7708   -0.0590    0.9397 C   0  0  0  0  0  0  0  0  0  0  0  0
    0.4311   -0.1091    0.0316 C   0  0  0  0  0  0  0  0  0  0  0  0
    0.4240   -0.3746   -1.1515 O   0  0  0  0  0  0  0  0  0  0  0  0
    1.5402    0.1730    0.7108 O   0  0  0  0  0  0  0  0  0  0  0  0
    2.8001    0.1479    0.0324 C   0  0  0  0  0  0  0  0  0  0  0  0
   -3.5049    0.1645   -1.2047 H   0  0  0  0  0  0  0  0  0  0  0  0
   -1.9448   -0.5977   -1.5227 H   0  0  0  0  0  0  0  0  0  0  0  0
   -3.0061   -1.2477   -0.2703 H   0  0  0  0  0  0  0  0  0  0  0  0
   -2.7176    0.8234    1.0646 H   0  0  0  0  0  0  0  0  0  0  0  0
   -1.7003    1.5142   -0.2022 H   0  0  0  0  0  0  0  0  0  0  0  0
   -1.0086   -1.0879    1.2201 H   0  0  0  0  0  0  0  0  0  0  0  0
   -0.4804    0.4838    1.8390 H   0  0  0  0  0  0  0  0  0  0  0  0
    3.4670   -0.4858    0.6127 H   0  0  0  0  0  0  0  0  0  0  0  0
    3.1838    1.1661   -0.0080 H   0  0  0  0  0  0  0  0  0  0  0  0
    2.6697   -0.2471   -0.9758 H   0  0  0  0  0  0  0  0  0  0  0  0
  1  2  1  0  0  0  0
  2  3  1  0  0  0  0
  3  4  1  0  0  0  0
  4  5  2  0  0  0  0
  4  6  1  0  0  0  0
  6  7  1  0  0  0  0
  1  8  1  0  0  0  0
  1  9  1  0  0  0  0
  1 10  1  0  0  0  0
  2 11  1  0  0  0  0
  2 12  1  0  0  0  0
  3 13  1  0  0  0  0
  3 14  1  0  0  0  0
  7 15  1  0  0  0  0
  7 16  1  0  0  0  0
  7 17  1  0  0  0  0
M  END
