 xtb: 6.7.1 (edcfbbe)
          04112511523D

 13 12  0     0  0            999 V2000
   -2.2726   -0.2355    0.1500 C   0  0  0  0  0  0  0  0  0  0  0  0
   -0.9734   -0.2131   -0.3993 O   0  0  0  0  0  0  0  0  0  0  0  0
   -0.0934    0.6456    0.2971 C   0  0  0  0  0  0  0  0  0  0  0  0
    1.3029    0.5141   -0.3010 C   0  0  0  0  0  0  0  0  0  0  0  0
    1.9281   -0.6286    0.2429 O   0  0  0  0  0  0  0  0  0  0  0  0
   -2.2540   -0.5952    1.1845 H   0  0  0  0  0  0  0  0  0  0  0  0
   -2.8513   -0.9175   -0.4673 H   0  0  0  0  0  0  0  0  0  0  0  0
   -2.7231    0.7631    0.1259 H   0  0  0  0  0  0  0  0  0  0  0  0
   -0.4426    1.6849    0.2111 H   0  0  0  0  0  0  0  0  0  0  0  0
   -0.0544    0.3678    1.3595 H   0  0  0  0  0  0  0  0  0  0  0  0
    1.8814    1.4143   -0.0563 H   0  0  0  0  0  0  0  0  0  0  0  0
    1.2015    0.4256   -1.3882 H   0  0  0  0  0  0  0  0  0  0  0  0
    2.7566   -0.7958   -0.2267 H   0  0  0  0  0  0  0  0  0  0  0  0
  1  2  1  0  0  0  0
  2  3  1  0  0  0  0
  3  4  1  0  0  0  0
  4  5  1  0  0  0  0
  1  6  1  0  0  0  0
  1  7  1  0  0  0  0
  1  8  1  0  0  0  0
  3  9  1  0  0  0  0
  3 10  1  0  0  0  0
  4 11  1  0  0  0  0
  4 12  1  0  0  0  0
  5 13  1  0  0  0  0
M  END
