 xtb: 6.7.1 (edcfbbe)
          04112511493D

 17 16  0     0  0            999 V2000
   -2.1653    1.0366   -0.6364 C   0  0  0  0  0  0  0  0  0  0  0  0
   -2.0867   -0.2810    0.1252 C   0  0  0  0  0  0  0  0  0  0  0  0
   -0.8234   -0.3591    0.9883 C   0  0  0  0  0  0  0  0  0  0  0  0
    0.4132   -0.4112    0.1288 C   0  0  0  0  0  0  0  0  0  0  0  0
    0.5936   -1.1933   -0.7814 O   0  0  0  0  0  0  0  0  0  0  0  0
    1.2934    0.5144    0.4916 O   0  0  0  0  0  0  0  0  0  0  0  0
    2.5396    0.6067   -0.2061 C   0  0  0  0  0  0  0  0  0  0  0  0
   -3.0811    1.0830   -1.2194 H   0  0  0  0  0  0  0  0  0  0  0  0
   -2.1493    1.8780    0.0523 H   0  0  0  0  0  0  0  0  0  0  0  0
   -1.3215    1.1323   -1.3173 H   0  0  0  0  0  0  0  0  0  0  0  0
   -2.0781   -1.1132   -0.5811 H   0  0  0  0  0  0  0  0  0  0  0  0
   -2.9598   -0.3852    0.7696 H   0  0  0  0  0  0  0  0  0  0  0  0
   -0.8456   -1.2753    1.5810 H   0  0  0  0  0  0  0  0  0  0  0  0
   -0.7486    0.4993    1.6548 H   0  0  0  0  0  0  0  0  0  0  0  0
    2.6514    1.6372   -0.5360 H   0  0  0  0  0  0  0  0  0  0  0  0
    2.5377   -0.0741   -1.0581 H   0  0  0  0  0  0  0  0  0  0  0  0
    3.3356    0.3423    0.4881 H   0  0  0  0  0  0  0  0  0  0  0  0
  1  2  1  0  0  0  0
  2  3  1  0  0  0  0
  3  4  1  0  0  0  0
  4  5  2  0  0  0  0
  4  6  1  0  0  0  0
  6  7  1  0  0  0  0
  1  8  1  0  0  0  0
  1  9  1  0  0  0  0
  1 10  1  0  0  0  0
  2 11  1  0  0  0  0
  2 12  1  0  0  0  0
  3 13  1  0  0  0  0
  3 14  1  0  0  0  0
  7 15  1  0  0  0  0
  7 16  1  0  0  0  0
  7 17  1  0  0  0  0
M  END
