 xtb: 6.7.1 (edcfbbe)
          04112511363D

 14 13  0     0  0            999 V2000
   -0.9956   -0.5825   -0.1896 C   0  0  0  0  0  0  0  0  0  0  0  0
    0.0239    0.2774    0.5613 C   0  0  0  0  0  0  0  0  0  0  0  0
    1.3928   -0.4068    0.6164 C   0  0  0  0  0  0  0  0  0  0  0  0
    1.7203   -0.9303   -0.6511 O   0  0  0  0  0  0  0  0  0  0  0  0
    0.1761    1.5374   -0.0535 O   0  0  0  0  0  0  0  0  0  0  0  0
   -2.2419    0.0807   -0.1294 O   0  0  0  0  0  0  0  0  0  0  0  0
   -1.0492   -1.5683    0.2865 H   0  0  0  0  0  0  0  0  0  0  0  0
   -0.6573   -0.6982   -1.2250 H   0  0  0  0  0  0  0  0  0  0  0  0
   -0.3337    0.4209    1.5941 H   0  0  0  0  0  0  0  0  0  0  0  0
    1.3547   -1.2118    1.3623 H   0  0  0  0  0  0  0  0  0  0  0  0
    2.1216    0.3478    0.9311 H   0  0  0  0  0  0  0  0  0  0  0  0
    2.6499   -1.1963   -0.6538 H   0  0  0  0  0  0  0  0  0  0  0  0
   -0.7090    1.8740   -0.2592 H   0  0  0  0  0  0  0  0  0  0  0  0
   -2.8954   -0.4200   -0.6353 H   0  0  0  0  0  0  0  0  0  0  0  0
  1  2  1  0  0  0  0
  2  3  1  0  0  0  0
  3  4  1  0  0  0  0
  2  5  1  0  0  0  0
  1  6  1  0  0  0  0
  1  7  1  0  0  0  0
  1  8  1  0  0  0  0
  2  9  1  0  0  0  0
  3 10  1  0  0  0  0
  3 11  1  0  0  0  0
  4 12  1  0  0  0  0
  5 13  1  0  0  0  0
  6 14  1  0  0  0  0
M  END
