 xtb: 6.7.1 (edcfbbe)
          04112511243D

 18 17  0     0  0            999 V2000
    2.2076    0.7322    0.1913 C   0  0  0  0  0  0  0  0  0  0  0  0
    1.6300   -0.5322   -0.4328 C   0  0  0  0  0  0  0  0  0  0  0  0
    0.2662   -0.9192    0.1421 C   0  0  0  0  0  0  0  0  0  0  0  0
   -0.8878   -0.0131   -0.3039 C   0  0  0  0  0  0  0  0  0  0  0  0
   -0.7764    0.2019   -1.3805 H   0  0  0  0  0  0  0  0  0  0  0  0
   -2.2353   -0.6997   -0.0713 C   0  0  0  0  0  0  0  0  0  0  0  0
   -0.8111    1.2051    0.4199 O   0  0  0  0  0  0  0  0  0  0  0  0
    1.5231    1.5657    0.0650 H   0  0  0  0  0  0  0  0  0  0  0  0
    3.1592    0.9839   -0.2712 H   0  0  0  0  0  0  0  0  0  0  0  0
    2.3679    0.5872    1.2572 H   0  0  0  0  0  0  0  0  0  0  0  0
    1.5367   -0.3965   -1.5129 H   0  0  0  0  0  0  0  0  0  0  0  0
    2.3227   -1.3597   -0.2624 H   0  0  0  0  0  0  0  0  0  0  0  0
    0.0313   -1.9373   -0.1715 H   0  0  0  0  0  0  0  0  0  0  0  0
    0.3104   -0.8960    1.2322 H   0  0  0  0  0  0  0  0  0  0  0  0
   -3.0533   -0.0495   -0.3744 H   0  0  0  0  0  0  0  0  0  0  0  0
   -2.2927   -1.6171   -0.6494 H   0  0  0  0  0  0  0  0  0  0  0  0
   -2.3498   -0.9374    0.9836 H   0  0  0  0  0  0  0  0  0  0  0  0
   -1.5847    1.7457    0.2121 H   0  0  0  0  0  0  0  0  0  0  0  0
  1  2  1  0  0  0  0
  2  3  1  0  0  0  0
  3  4  1  0  0  0  0
  4  5  1  0  0  0  0
  4  6  1  0  0  0  0
  4  7  1  0  0  0  0
  1  8  1  0  0  0  0
  1  9  1  0  0  0  0
  1 10  1  0  0  0  0
  2 11  1  0  0  0  0
  2 12  1  0  0  0  0
  3 13  1  0  0  0  0
  3 14  1  0  0  0  0
  6 15  1  0  0  0  0
  6 16  1  0  0  0  0
  6 17  1  0  0  0  0
  7 18  1  0  0  0  0
M  END
