  27
 
 C         -2.7080000000        2.7610000000       -1.3160000000
 C         -2.0240000000        1.4030000000       -1.3410000000
 C         -1.3390000000        1.0960000000       -0.0100000000
 C         -0.6530000000       -0.2710000000       -0.0390000000
 C          0.0320000000       -0.5750000000        1.2950000000
 C          0.7380000000       -1.9360000000        1.3220000000
 C          1.4390000000       -2.2880000000        2.6380000000
 C          0.5040000000       -2.3330000000        3.8100000000
 C          0.6220000000       -1.5540000000        4.8910000000
 H         -3.1950000000        2.9730000000       -2.2730000000
 H         -1.9740000000        3.5510000000       -1.1260000000
 H         -3.4650000000        2.8050000000       -0.5270000000
 H         -2.7690000000        0.6300000000       -1.5640000000
 H         -1.2870000000        1.3870000000       -2.1520000000
 H         -0.5980000000        1.8750000000        0.2100000000
 H         -2.0810000000        1.1180000000        0.7980000000
 H          0.0820000000       -0.2840000000       -0.8510000000
 H         -1.3940000000       -1.0490000000       -0.2580000000
 H          0.7430000000        0.2230000000        1.5380000000
 H         -0.7220000000       -0.5700000000        2.0920000000
 H          1.4780000000       -1.9690000000        0.5130000000
 H         -0.0030000000       -2.7130000000        1.0910000000
 H          2.2690000000       -1.5950000000        2.8200000000
 H          1.8930000000       -3.2820000000        2.5330000000
 H         -0.3090000000       -3.0540000000        3.7720000000
 H         -0.0850000000       -1.6390000000        5.7090000000
 H          1.4170000000       -0.8230000000        4.9790000000
