 xtb: 6.7.1 (edcfbbe)
          04112511443D

 25 25  0     0  0            999 V2000
    1.6197   -0.1414    1.7789 C   0  0  0  0  0  0  0  0  0  0  0  0
    2.0611   -0.3023    0.3560 C   0  0  0  0  0  0  0  0  0  0  0  0
    3.0166   -1.1607    0.0296 C   0  0  0  0  0  0  0  0  0  0  0  0
    1.4065    0.5365   -0.7256 C   0  0  0  0  0  0  0  0  0  0  0  0
    2.2072    0.9032   -1.3767 H   0  0  0  0  0  0  0  0  0  0  0  0
    0.4690   -0.3293   -1.5833 C   0  0  0  0  0  0  0  0  0  0  0  0
   -0.6898   -0.8633   -0.7497 C   0  0  0  0  0  0  0  0  0  0  0  0
   -1.3697    0.2472   -0.0030 C   0  0  0  0  0  0  0  0  0  0  0  0
   -0.7553    1.4165    0.2416 C   0  0  0  0  0  0  0  0  0  0  0  0
    0.6211    1.7450   -0.2071 C   0  0  0  0  0  0  0  0  0  0  0  0
   -2.7252    0.0297    0.4597 C   0  0  0  0  0  0  0  0  0  0  0  0
   -3.3852   -0.9787    0.2779 O   0  0  0  0  0  0  0  0  0  0  0  0
    1.9913    0.7986    2.1854 H   0  0  0  0  0  0  0  0  0  0  0  0
    0.5358   -0.1359    1.8616 H   0  0  0  0  0  0  0  0  0  0  0  0
    2.0160   -0.9494    2.3885 H   0  0  0  0  0  0  0  0  0  0  0  0
    3.3626   -1.2721   -0.9844 H   0  0  0  0  0  0  0  0  0  0  0  0
    3.4926   -1.7902    0.7620 H   0  0  0  0  0  0  0  0  0  0  0  0
    0.0749    0.2790   -2.3996 H   0  0  0  0  0  0  0  0  0  0  0  0
    1.0236   -1.1623   -2.0147 H   0  0  0  0  0  0  0  0  0  0  0  0
   -1.4269   -1.3665   -1.3795 H   0  0  0  0  0  0  0  0  0  0  0  0
   -0.3251   -1.6053   -0.0333 H   0  0  0  0  0  0  0  0  0  0  0  0
   -1.2857    2.1960    0.7728 H   0  0  0  0  0  0  0  0  0  0  0  0
    0.5279    2.4807   -1.0132 H   0  0  0  0  0  0  0  0  0  0  0  0
    1.1609    2.2458    0.5978 H   0  0  0  0  0  0  0  0  0  0  0  0
   -3.1638    0.8775    1.0207 H   0  0  0  0  0  0  0  0  0  0  0  0
  1  2  1  0  0  0  0
  2  3  2  0  0  0  0
  2  4  1  0  0  0  0
  4  5  1  0  0  0  0
  4  6  1  0  0  0  0
  6  7  1  0  0  0  0
  7  8  1  0  0  0  0
  8  9  2  0  0  0  0
  4 10  1  0  0  0  0
  9 10  1  0  0  0  0
  8 11  1  0  0  0  0
 11 12  2  0  0  0  0
  1 13  1  0  0  0  0
  1 14  1  0  0  0  0
  1 15  1  0  0  0  0
  3 16  1  0  0  0  0
  3 17  1  0  0  0  0
  6 18  1  0  0  0  0
  6 19  1  0  0  0  0
  7 20  1  0  0  0  0
  7 21  1  0  0  0  0
  9 22  1  0  0  0  0
 10 23  1  0  0  0  0
 10 24  1  0  0  0  0
 11 25  1  0  0  0  0
M  END
