23
 xtb: 6.7.1 (edcfbbe)
C           -1.45411761043235        1.00097702813706        0.65898842804848
C           -1.16576741628933       -0.35894153515974        0.01901662214749
C           -2.35809766287586       -0.78577632634925       -0.84241193963551
C            0.10557894614584       -0.38510425699986       -0.84520075962873
C            1.47112745223989       -0.09611010967793       -0.18721654263107
C            1.77578733758226        1.39231995237705        0.01395954801771
C            1.66692713744974       -0.87379634497697        1.11502777309797
H           -2.44630598937928        1.00167443923487        1.12487236493122
H           -0.72785605954574        1.25546818076182        1.43467067338700
H           -1.43814975354860        1.79679262473258       -0.09616652201099
H           -1.05192988271868       -1.09831915961652        0.82389870357883
H           -2.52257718689019       -0.06499853450805       -1.65330764890543
H           -2.19249950652442       -1.76889987164403       -1.29663680419263
H           -3.27730888069120       -0.83718946436444       -0.24881322709481
H           -0.03392540513128        0.31304992870075       -1.68383586868706
H            0.16451147876947       -1.38809084819913       -1.28992615609881
H            2.21956698087926       -0.46697278833276       -0.90195142663429
H            1.18300939208251        1.83244216276316        0.82028684838830
H            2.83174769303913        1.53096729351855        0.27310220299039
H            1.57896562770049        1.96372322141777       -0.89999505508873
H            1.47960082870071       -1.94448559134404        0.97433988813681
H            2.69177937048086       -0.75738338791107        1.48490550074460
H            0.99062357824859       -0.51384672536520        1.89858885556465
