17
 xtb: 6.7.1 (edcfbbe)
C           -3.34535644673667       -0.03254217712092        0.00538990820489
C           -2.01772715597127        0.65113130232956        0.32355551088974
C           -0.86126320479436       -0.21238913623364       -0.12679910461381
O            0.37545103513537        0.49111379358399        0.20846957310873
C            1.52176897301380       -0.13978268096615       -0.10189340648971
O            1.55438841816303       -1.23462692819044       -0.64323611648608
C            2.73482534560609        0.64177570640405        0.28785861418350
H           -4.18703383730031        0.57992965803344        0.34010603407782
H           -3.45596561799417       -0.19718360821394       -1.07161360506816
H           -3.41645520174350       -1.00473367374351        0.50453831279989
H           -1.93522683037754        0.83262419194043        1.40121387721045
H           -1.96288149394325        1.62300343978631       -0.17996052393277
H           -0.85880854490864       -1.18052392890572        0.38492290344734
H           -0.88169250863633       -0.38281428521914       -1.20839310165241
H            3.37047935489677        0.76551974924270       -0.59321309198091
H            3.29972583172490        0.05796954044293        1.02112927652931
H            2.48402148474326        1.61542226332832        0.70781116755890
