 xtb: 6.7.1 (edcfbbe)
          04072508213D

 16 15  0     0  0            999 V2000
   -1.5528   -1.1437   -0.1228 C   0  0  0  0  0  0  0  0  0  0  0  0
   -1.7313    0.3679   -0.0510 C   0  0  0  0  0  0  0  0  0  0  0  0
   -0.5400    1.0931    0.5755 C   0  0  0  0  0  0  0  0  0  0  0  0
    0.7353    1.0432   -0.2792 C   0  0  0  0  0  0  0  0  0  0  0  0
    1.4675   -0.1988   -0.1375 C   0  0  0  0  0  0  0  0  0  0  0  0
    2.0979   -1.2070    0.0022 C   0  0  0  0  0  0  0  0  0  0  0  0
   -0.7105   -1.4051   -0.7575 H   0  0  0  0  0  0  0  0  0  0  0  0
   -2.4485   -1.6100   -0.5268 H   0  0  0  0  0  0  0  0  0  0  0  0
   -1.3689   -1.5516    0.8688 H   0  0  0  0  0  0  0  0  0  0  0  0
   -1.9027    0.7600   -1.0566 H   0  0  0  0  0  0  0  0  0  0  0  0
   -2.6205    0.5909    0.5443 H   0  0  0  0  0  0  0  0  0  0  0  0
   -0.8134    2.1417    0.7142 H   0  0  0  0  0  0  0  0  0  0  0  0
   -0.3314    0.6688    1.5601 H   0  0  0  0  0  0  0  0  0  0  0  0
    1.4021    1.8559    0.0229 H   0  0  0  0  0  0  0  0  0  0  0  0
    0.4796    1.1891   -1.3322 H   0  0  0  0  0  0  0  0  0  0  0  0
    2.6358   -2.1001    0.1145 H   0  0  0  0  0  0  0  0  0  0  0  0
  1  2  1  0  0  0  0
  2  3  1  0  0  0  0
  3  4  1  0  0  0  0
  4  5  1  0  0  0  0
  5  6  3  0  0  0  0
  1  7  1  0  0  0  0
  1  8  1  0  0  0  0
  1  9  1  0  0  0  0
  2 10  1  0  0  0  0
  2 11  1  0  0  0  0
  3 12  1  0  0  0  0
  3 13  1  0  0  0  0
  4 14  1  0  0  0  0
  4 15  1  0  0  0  0
  6 16  1  0  0  0  0
M  END
