  17
 
 C          4.0643111433       -0.2713883414       -0.0021823348
 C          2.7582430113        0.5129867140        0.0003097249
 C          1.5485367023       -0.4183546166       -0.0003806843
 C          0.2470017414        0.3708049957        0.0004249273
 O         -0.8241019675       -0.5625821047        0.0001710015
 N         -2.1021288450       -0.0269196574        0.0001185630
 O         -2.1838605422        1.1575932007        0.0002402717
 O         -2.9573602517       -0.8421505230       -0.0001222002
 H          4.9137293516        0.4067701148       -0.0006862503
 H          4.1302613029       -0.9066450570        0.8777805591
 H          4.1296534711       -0.9019463038       -0.8855656234
 H          2.7205619967        1.1544508794        0.8831020377
 H          2.7191487152        1.1576501888       -0.8800938391
 H          1.5705657459       -1.0595017173       -0.8824743249
 H          1.5707230368       -1.0610373745        0.8805903212
 H          0.1736355254        1.0080324435        0.8893046589
 H          0.1731669083        1.0090507953       -0.8876821679
          17
        -28.16727496
 C          3.2831633231        0.8494747979       -0.3687132550
 C          2.1337482351        0.2763556434        0.4498753667
 C          1.3043696686       -0.7126811648       -0.3669377206
 C          0.1256769199       -1.2663730866        0.4302866700
 O         -0.7707524362       -0.2475172754        0.8503588676
 N         -1.6723934682        0.2215618769       -0.0947990937
 O         -1.6548549617       -0.2933766576       -1.1639190313
 O         -2.3612882346        1.0927064211        0.3090548802
 H          2.9058381634        1.3766868464       -1.2420265004
 H          3.8637707433        1.5476710417        0.2286041488
 H          3.9437437684        0.0546200147       -0.7078962046
 H          2.5301496307       -0.2304476993        1.3323427841
 H          1.4917951699        1.0887256606        0.7960484783
 H          0.9330050089       -0.2273586192       -1.2718246348
 H          1.9252876333       -1.5554296707       -0.6739872200
 H         -0.4221815362       -2.0088202120       -0.1598602063
 H          0.4626397114       -1.7163967209        1.3654134665
