22
 xtb: 6.7.1 (edcfbbe)
C           -4.27609485960269        0.81121010306445        0.00122619717132
O           -3.48347629422445       -0.39070691591401       -0.00118369439414
C           -2.13108482351092       -0.25632276739964       -0.00044747083043
C           -1.40279880842223       -1.45495953054212       -0.00426370864955
C           -0.02356956809848       -1.42107933581876       -0.00434726875515
C            0.66293401872747       -0.19652335295316       -0.00014139801757
C           -0.07467725712246        0.99228677325153        0.00372724076427
C           -1.46260091834780        0.97301026164591        0.00362459911085
C            2.13463586359262       -0.21447389333631        0.00020850682573
O            2.81555342928191       -1.23284950394829       -0.00460945079382
O            2.67656535037308        1.02118939935406        0.00317419162083
C            4.12411717798272        1.07030702473302        0.00191593495993
H           -4.08109789148549        1.40345999468993        0.90126101551096
H           -5.31319941389398        0.47580538518852       -0.00082946629836
H           -4.07911615885734        1.40829283400947       -0.89517293916584
H           -1.93952299142677       -2.39770098295533       -0.00717865140785
H            0.53785805011302       -2.34881909537618       -0.00711723991719
H            0.43463138240950        1.94857841588717        0.00697441408992
H           -2.00748806661934        1.90833791567556        0.00674282097347
H            4.51879119592693        0.58905710044198       -0.89618434668371
H            4.52048161099075        0.58071639751767        0.89473680838173
H            4.37561291905787        2.13024959441262        0.00663278433381
