23
CONF2
C 2.7622171048 0.5061788458 -0.3056177777
C 1.2954541446 0.9039252159 -0.1491498104
C 0.3125821004 -0.2714946674 -0.2612135841
H 0.5297079485 -0.7830244424 -1.2119055608
C 0.5224888131 -1.2821437745 0.8693929231
C -1.1493738421 0.2248309946 -0.3650356579
C -2.0987552058 -0.8843980044 -0.8238749475
C -1.6712921255 0.8599380397 0.9261525459
H 2.9258302663 -0.0242261766 -1.2509539906
H 3.4089504302 1.3897891470 -0.3020913711
H 3.0964612853 -0.1467844799 0.5066002561
H 1.0426036243 1.6429514622 -0.9207681522
H 1.1594901505 1.4039558734 0.8186025461
H 1.5114665987 -1.7455861389 0.8049236402
H 0.4474072369 -0.7991693749 1.8504778780
H -0.2150695405 -2.0898278884 0.8327741467
H -1.1536152678 1.0010750421 -1.1440763970
H -3.1010099490 -0.4824370868 -1.0086784208
H -2.1972012627 -1.6696101511 -0.0659679166
H -1.7465437374 -1.3514341107 -1.7504248718
H -2.6682907037 1.2843257643 0.7645005155
H -1.0227413039 1.6665534295 1.2825905907
H -1.7578352510 0.1164440059 1.7265719902
23
CONF4
C 1.9961054741 1.4522049762 -0.4195729788
C 1.6191646760 0.1980801322 0.3652328723
C 0.4223017757 -0.5828577780 -0.2003781320
H 0.7021437333 -0.9135899540 -1.2128460693
C 0.1837061615 -1.8365384326 0.6456146581
C -0.8449449349 0.2872067664 -0.3713135932
C -1.9815848951 -0.4903572405 -1.0402584902
C -1.3318653879 0.9171443859 0.9350419703
H 2.1341991194 1.2235906658 -1.4829403433
H 1.2315810402 2.2318169059 -0.3428596796
H 2.9341758146 1.8766875825 -0.0466346270
H 1.4194003846 0.4626256296 1.4122568086
H 2.4807577574 -0.4816671263 0.3859373864
H -0.5998733333 -2.4748752027 0.2264590668
H 1.0998837793 -2.4346306435 0.7031428558
H -0.1029622530 -1.5781391665 1.6713817504
H -0.5738269614 1.1047990452 -1.0525683403
H -2.7950820743 0.1857439494 -1.3252311196
H -2.4034307765 -1.2450101344 -0.3672052538
H -1.6355355487 -1.0014098664 -1.9462711694
H -2.2107289622 1.5444076568 0.7489158634
H -0.5677924826 1.5486611579 1.3998860721
H -1.6242243185 0.1506050986 1.6616302431
23
CONF5
C 1.9888783267 1.4479655529 -0.4730496269
C 1.6235579187 0.2103827295 0.3430763810
C 0.4202482167 -0.5843613684 -0.1890849424
H 0.6877837901 -0.9366025870 -1.1976346255
C 0.1952191094 -1.8190323951 0.6876902130
C -0.8503982218 0.2804408166 -0.3625777118
C -1.9880363818 -0.5064679684 -1.0181667026
C -1.3316946221 0.9234323868 0.9395218778
H 1.2263788938 2.2303519204 -0.4002287752
H 2.9331999695 1.8787763531 -0.1236528731
H 2.1101219938 1.1975487034 -1.5338486784
H 1.4375485937 0.4975520438 1.3869781556
H 2.4862082920 -0.4684440700 0.3674127372
H 1.1108697493 -2.4185732734 0.7394843794
H -0.0701367023 -1.5380113623 1.7133951055
H -0.5983232025 -2.4641895235 0.2983281514
H -0.5848815616 1.0911693919 -1.0541437252
H -2.3994889772 -1.2613745218 -0.3387361228
H -1.6471322138 -1.0182172093 -1.9259253238
H -2.8085691903 0.1640154610 -1.2979798436
H -2.2063670243 1.5553410063 0.7502327980
H -0.5627209079 1.5528371070 1.3989545332
H -1.6282396608 0.1640326793 1.6717115701
23
CONF3
C 2.0168768727 1.4637127759 -0.2371637259
C 1.6072332246 0.1554950742 0.4354143733
C 0.4307851904 -0.5728421260 -0.2335099814
H 0.7481865383 -0.8253054917 -1.2573678295
C 0.1573587908 -1.8862964443 0.5035185937
C -0.8265310337 0.3155108817 -0.3838419535
C -1.9371560137 -0.3973299815 -1.1598492096
C -1.3660443888 0.8395464059 0.9485721141
H 1.2520317773 2.2392842427 -0.1277805412
H 2.9425607334 1.8529986206 0.2001448366
H 2.1921157491 1.3162861349 -1.3095775469
H 1.3680663892 0.3415529772 1.4910764514
H 2.4655296825 -0.5287503537 0.4372138839
H 1.0687931096 -2.4925551592 0.5481526415
H -0.1660735218 -1.7054717449 1.5348144587
H -0.6123336852 -2.4855256395 0.0081162185
H -0.5248108402 1.1851490790 -0.9830101451
H -2.7383421923 0.3042439081 -1.4165609049
H -2.3850575311 -1.2041512575 -0.5695851239
H -1.5574546688 -0.8308511322 -2.0922315067
H -2.2310710209 1.4898922787 0.7776135146
H -0.6188942126 1.4217106300 1.4977262170
H -1.6967935845 0.0191270219 1.5956969524
23
CONF1
C 2.5570728646 0.7640375325 0.1454819977
C 1.0887420693 0.5870692206 0.5290545140
C 0.2837002826 -0.2463918742 -0.4797769781
H 0.4868026113 0.1655232150 -1.4804162633
C 0.7407753392 -1.7072105720 -0.4840293815
C -1.2477033696 -0.1387004223 -0.2719847671
C -1.6949828582 -0.4972121055 1.1467999747
C -1.7840120859 1.2402770210 -0.6622657536
H 3.0910911115 -0.1908306385 0.1192595430
H 2.6498067561 1.2269351313 -0.8437165729
H 3.0745382189 1.4083613401 0.8640862755
H 0.6323669686 1.5791478858 0.6298671545
H 1.0269595175 0.1141514794 1.5180277864
H 0.1540907289 -2.2982586028 -1.1961586328
H 1.7931986656 -1.7992696986 -0.7696933247
H 0.6281229346 -2.1640537466 0.5060702067
H -1.7000561760 -0.8694289874 -0.9581593698
H -1.3261747014 -1.4788726030 1.4615544287
H -2.7887453373 -0.5201825662 1.2059170216
H -1.3434626598 0.2451538580 1.8721377368
H -1.4186324294 2.0218982927 0.0130653656
H -2.8786239394 1.2560888518 -0.6166666848
H -1.4860115064 1.5082601896 -1.6820806669
23
CONF8
C 2.7068471731 0.3648777420 0.4904411077
C 1.2523693424 0.0855845463 0.8676232897
C 0.2699705465 0.0852412261 -0.3165549246
H 0.2650989761 1.1000965552 -0.7470089317
C 0.7298490671 -0.8926123849 -1.4015849814
C -1.1750348772 -0.2226866439 0.1441347609
C -1.6428034201 0.7107653029 1.2662088858
C -2.1746047479 -0.1402469072 -1.0145441402
H 3.1509709581 -0.4506562715 -0.0874153427
H 2.7886372351 1.2818440879 -0.1051989096
H 3.3179503999 0.4983469200 1.3891980566
H 0.9385214438 0.8446309656 1.5909350854
H 1.1845995517 -0.8838021361 1.3824532637
H 1.7349094404 -0.6500563560 -1.7574553757
H 0.7505644095 -1.9178858006 -1.0097894688
H 0.0709753211 -0.8768300235 -2.2732596048
H -1.1811782118 -1.2535280891 0.5308640819
H -1.0785538907 0.5740605042 2.1919224122
H -2.6976642343 0.5285914255 1.4968714485
H -1.5457694575 1.7602250971 0.9611595587
H -3.1948660238 -0.3046283400 -0.6519123191
H -1.9816599021 -0.8827119687 -1.7930524367
H -2.1419111302 0.8537808921 -1.4784573263
