 xtb: 6.7.1 (edcfbbe)
          04112512023D

 20 19  0     0  0            999 V2000
    2.2025    0.8059    0.4413 C   0  0  0  0  0  0  0  0  0  0  0  0
    1.4162   -0.4473    0.0686 C   0  0  0  0  0  0  0  0  0  0  0  0
    0.3170   -0.1840   -0.9713 C   0  0  0  0  0  0  0  0  0  0  0  0
   -1.1073   -0.0145   -0.4187 C   0  0  0  0  0  0  0  0  0  0  0  0
   -1.2133    1.1156    0.6022 C   0  0  0  0  0  0  0  0  0  0  0  0
   -1.6445   -1.3178    0.1711 C   0  0  0  0  0  0  0  0  0  0  0  0
    2.6886    1.2230   -0.4383 H   0  0  0  0  0  0  0  0  0  0  0  0
    1.5537    1.5663    0.8657 H   0  0  0  0  0  0  0  0  0  0  0  0
    2.9713    0.5647    1.1725 H   0  0  0  0  0  0  0  0  0  0  0  0
    2.1174   -1.1810   -0.3349 H   0  0  0  0  0  0  0  0  0  0  0  0
    0.9833   -0.8820    0.9698 H   0  0  0  0  0  0  0  0  0  0  0  0
    0.5784    0.7130   -1.5372 H   0  0  0  0  0  0  0  0  0  0  0  0
    0.2914   -1.0143   -1.6810 H   0  0  0  0  0  0  0  0  0  0  0  0
   -1.7426    0.2469   -1.2745 H   0  0  0  0  0  0  0  0  0  0  0  0
   -2.2532    1.2691    0.8830 H   0  0  0  0  0  0  0  0  0  0  0  0
   -0.8319    2.0449    0.1856 H   0  0  0  0  0  0  0  0  0  0  0  0
   -0.6527    0.8776    1.5024 H   0  0  0  0  0  0  0  0  0  0  0  0
   -2.6831   -1.1947    0.4696 H   0  0  0  0  0  0  0  0  0  0  0  0
   -1.5903   -2.1200   -0.5613 H   0  0  0  0  0  0  0  0  0  0  0  0
   -1.0752   -1.6155    1.0481 H   0  0  0  0  0  0  0  0  0  0  0  0
  1  2  1  0  0  0  0
  2  3  1  0  0  0  0
  3  4  1  0  0  0  0
  4  5  1  0  0  0  0
  4  6  1  0  0  0  0
  1  7  1  0  0  0  0
  1  8  1  0  0  0  0
  1  9  1  0  0  0  0
  2 10  1  0  0  0  0
  2 11  1  0  0  0  0
  3 12  1  0  0  0  0
  3 13  1  0  0  0  0
  4 14  1  0  0  0  0
  5 15  1  0  0  0  0
  5 16  1  0  0  0  0
  5 17  1  0  0  0  0
  6 18  1  0  0  0  0
  6 19  1  0  0  0  0
  6 20  1  0  0  0  0
M  END
