 xtb: 6.7.1 (edcfbbe)
          04112511493D

 17 16  0     0  0            999 V2000
   -3.2569    0.4679    0.0914 C   0  0  0  0  0  0  0  0  0  0  0  0
   -1.9487   -0.2166   -0.2830 C   0  0  0  0  0  0  0  0  0  0  0  0
   -0.7471    0.5209    0.3012 C   0  0  0  0  0  0  0  0  0  0  0  0
    0.5578   -0.1383   -0.0549 C   0  0  0  0  0  0  0  0  0  0  0  0
    0.6850   -1.1403   -0.7253 O   0  0  0  0  0  0  0  0  0  0  0  0
    1.5914    0.5220    0.4644 O   0  0  0  0  0  0  0  0  0  0  0  0
    2.9002    0.0065    0.2060 C   0  0  0  0  0  0  0  0  0  0  0  0
   -4.0990   -0.0714   -0.3331 H   0  0  0  0  0  0  0  0  0  0  0  0
   -3.3761    0.4974    1.1715 H   0  0  0  0  0  0  0  0  0  0  0  0
   -3.2753    1.4872   -0.2859 H   0  0  0  0  0  0  0  0  0  0  0  0
   -1.8464   -0.2600   -1.3688 H   0  0  0  0  0  0  0  0  0  0  0  0
   -1.9468   -1.2454    0.0818 H   0  0  0  0  0  0  0  0  0  0  0  0
   -0.8112    0.5649    1.3903 H   0  0  0  0  0  0  0  0  0  0  0  0
   -0.7099    1.5500   -0.0615 H   0  0  0  0  0  0  0  0  0  0  0  0
    3.5849    0.6844    0.7053 H   0  0  0  0  0  0  0  0  0  0  0  0
    3.0858   -0.0187   -0.8684 H   0  0  0  0  0  0  0  0  0  0  0  0
    2.9881   -1.0048    0.6047 H   0  0  0  0  0  0  0  0  0  0  0  0
  1  2  1  0  0  0  0
  2  3  1  0  0  0  0
  3  4  1  0  0  0  0
  4  5  2  0  0  0  0
  4  6  1  0  0  0  0
  6  7  1  0  0  0  0
  1  8  1  0  0  0  0
  1  9  1  0  0  0  0
  1 10  1  0  0  0  0
  2 11  1  0  0  0  0
  2 12  1  0  0  0  0
  3 13  1  0  0  0  0
  3 14  1  0  0  0  0
  7 15  1  0  0  0  0
  7 16  1  0  0  0  0
  7 17  1  0  0  0  0
M  END
