  7
 
 C         -1.2458025940       -0.1791605183       -0.0082007838
 C          0.1279129595        0.4113336575        0.0009154290
 O          1.1365799449       -0.1639830117       -0.2900298671
 H         -1.6672088739       -0.1183276153        0.9933805238
 H         -1.8830186110        0.4039889205       -0.6701583661
 H         -1.2187450917       -1.2145461584       -0.3357124892
 H          0.1486700722        1.4745029044        0.3129204789
           7
        -10.35670657
 C         -1.2562909697       -0.1621775507        0.0000031685
 C          0.1261030853        0.4076616573        0.0000200951
 O          1.1421697087       -0.2257732999       -0.0000043596
 H         -1.2266921082       -1.2483594672        0.0001994274
 H         -1.7906108219        0.1952831943        0.8784429652
 H         -1.7903524502        0.1949056960       -0.8787669240
 H          0.1451458467        1.5166959574       -0.0000834943
