21
 xtb: 6.7.1 (edcfbbe)
C            2.18520927461981       -1.18244034421769        0.53357796951204
C            1.52664396339185       -0.24089570072932       -0.47503725219771
C            0.30597013356713        0.51729499571582        0.07502967628261
H            0.39492229977093        0.59603118966241        1.16777705459788
C           -1.04691741924268       -0.12726522914301       -0.26678759512902
C           -1.11521741812775       -1.59745017559786        0.14974289642429
C           -2.20194115920665        0.64695987238566        0.37072403171424
O            0.32062951384147        1.89347882087013       -0.38244993183715
H            1.49828307565153       -1.95125218568526        0.89679601657989
H            2.54525680264936       -0.62065975603041        1.40247224193064
H            3.04526337344341       -1.68956798465419        0.08446089299917
H            2.26710268277803        0.50766438980347       -0.77832669729397
H            1.24350634642161       -0.78851525469928       -1.38351368924782
H           -1.14739515317179       -0.07605574787387       -1.36266759694058
H           -0.95507115668208       -1.70556089853060        1.22913477862070
H           -2.10556023614359       -2.00377365721979       -0.08119973482159
H           -0.37601086054808       -2.21247485970529       -0.37083472306374
H           -2.20941195339226        1.69601527919467        0.06486885776762
H           -2.12688476868494        0.61185338584963        1.46435302032269
H           -3.16331584612145        0.20612454907116        0.08811098610153
H            0.23898902203168        1.86907417415078       -1.34586071209700
