 xtb: 6.7.1 (edcfbbe)
          04112512213D

 14 13  0     0  0            999 V2000
   -2.8110    0.1921    0.0001 C   0  0  0  0  0  0  0  0  0  0  0  0
   -1.4333   -0.4583   -0.0006 C   0  0  0  0  0  0  0  0  0  0  0  0
   -0.3213    0.5889    0.0003 C   0  0  0  0  0  0  0  0  0  0  0  0
    1.0510   -0.0350    0.0001 C   0  0  0  0  0  0  0  0  0  0  0  0
    1.2602   -1.2260    0.0002 O   0  0  0  0  0  0  0  0  0  0  0  0
    2.0786    0.8171   -0.0001 O   0  0  0  0  0  0  0  0  0  0  0  0
   -2.9409    0.8122    0.8837 H   0  0  0  0  0  0  0  0  0  0  0  0
   -3.5860   -0.5692   -0.0007 H   0  0  0  0  0  0  0  0  0  0  0  0
   -2.9409    0.8141   -0.8821 H   0  0  0  0  0  0  0  0  0  0  0  0
   -1.3202   -1.0981    0.8764 H   0  0  0  0  0  0  0  0  0  0  0  0
   -1.3204   -1.0965   -0.8788 H   0  0  0  0  0  0  0  0  0  0  0  0
   -0.4111    1.2244   -0.8842 H   0  0  0  0  0  0  0  0  0  0  0  0
   -0.4113    1.2230    0.8859 H   0  0  0  0  0  0  0  0  0  0  0  0
    1.8134    1.7551   -0.0001 H   0  0  0  0  0  0  0  0  0  0  0  0
  1  2  1  0  0  0  0
  2  3  1  0  0  0  0
  3  4  1  0  0  0  0
  4  5  2  0  0  0  0
  4  6  1  0  0  0  0
  1  7  1  0  0  0  0
  1  8  1  0  0  0  0
  1  9  1  0  0  0  0
  2 10  1  0  0  0  0
  2 11  1  0  0  0  0
  3 12  1  0  0  0  0
  3 13  1  0  0  0  0
  6 14  1  0  0  0  0
M  END
