25
CONF2
C 3.0391979578 -0.9598321347 0.9620497834
C 2.5973232203 0.0963568336 -0.0045437105
C 3.4669685886 0.8693362523 -0.6371357476
C 1.1126989922 0.2542904231 -0.2305333143
H 0.9684894108 0.8687210722 -1.1253028601
C 0.3899642766 -1.0776406321 -0.4511869905
C -1.0495763407 -0.8111184617 -0.8789133615
C -1.7203048626 0.1618802999 0.0485495456
C -1.0251194719 0.9630292577 0.8716276506
C 0.4565936046 0.9854203044 0.9496332468
C -3.1692770815 0.2146913020 0.0407077134
O -3.9007561466 -0.4752128627 -0.6473012632
H 2.8737000659 -1.9486543678 0.5372704307
H 4.0977263768 -0.8552192830 1.1830885827
H 2.4801989474 -0.8996582746 1.8932771998
H 3.1556611933 1.6208032750 -1.3432427108
H 4.5284267385 0.7820393947 -0.4776992639
H 0.8999665773 -1.6582856219 -1.2208018887
H 0.3881799598 -1.6552962374 0.4735268325
H -1.0756476183 -0.4021195079 -1.8933290201
H -1.6320378119 -1.7351305802 -0.8973102217
H -1.5539956607 1.6331924123 1.5364464905
H 0.8061028793 2.0193727472 0.9933563169
H 0.7514490591 0.5177530758 1.8943755236
H -3.6085017600 0.9569493968 0.7342712133
25
CONF3
C 3.0729812215 -0.4562968405 1.2780452345
C 2.5956659542 0.0131240490 -0.0632895273
C 3.4395616169 0.2389079997 -1.0588740474
C 1.1102517474 0.2045712329 -0.2517907762
H 0.9531421511 0.6892455392 -1.2210274123
C 0.3650209630 -1.1369447656 -0.2810942842
C -1.0749201527 -0.9098131696 -0.7284739087
C -1.7165088818 0.2071816002 0.0450934941
C -0.9994022262 1.1008814658 0.7451408183
C 0.4824189202 1.0891110567 0.8303257769
C -3.1631838961 0.2987284064 0.0225244365
O -3.9135698163 -0.4634075795 -0.5612443785
H 4.1021049532 -0.7988443362 1.2149836692
H 3.0331157192 0.3575031250 2.0007678526
H 2.4555798963 -1.2714688224 1.6473780302
H 3.1073375510 0.5856977891 -2.0229892973
H 4.5002305254 0.0854748064 -0.9525331220
H 0.8621716254 -1.8259913571 -0.9648499722
H 0.3663028504 -1.5824413324 0.7144875794
H -1.1072789880 -0.6604096001 -1.7932063809
H -1.6740479905 -1.8141902113 -0.5995461981
H -1.5107170901 1.8748708482 1.3020934689
H 0.8630866118 2.1100307855 0.7558501793
H 0.7540022804 0.7204416635 1.8237912174
H -3.5817887190 1.1467959021 0.5974028563
25
CONF1
C 3.2739013297 -0.9683127905 0.0530903868
C 2.0183946581 -0.2524831584 0.4529981523
C 1.5242043273 -0.3470089548 1.6774397935
C 1.3837346267 0.5641978098 -0.6501998162
H 2.1952468602 0.9452165975 -1.2791410525
C 0.4782958586 -0.3138781969 -1.5289947462
C -0.6967837501 -0.8579368835 -0.7256762671
C -1.4113750432 0.2472198447 -0.0054190562
C -0.8134158142 1.4195768656 0.2629622420
C 0.5737403501 1.7605665190 -0.1386697351
C -2.7781511775 0.0174763113 0.4145400098
O -3.4225488366 -0.9978872439 0.2156709198
H 3.6294468306 -1.6102787702 0.8540631017
H 3.1011196464 -1.5767812517 -0.8326793607
H 4.0541647127 -0.2472401067 -0.1877077736
H 0.6261268387 0.1592175683 1.9862648354
H 2.0031665416 -0.9518529826 2.4296354980
H 0.1000132613 0.2917080750 -2.3544134845
H 1.0478586850 -1.1420689379 -1.9508996512
H -1.4076030798 -1.3783256205 -1.3710758441
H -0.3422373131 -1.5826929485 0.0133423366
H -1.3661039486 2.1930735363 0.7807286810
H 0.5059236802 2.5152203322 -0.9290819723
H 1.0902241869 2.2350518951 0.6987382771
H -3.2429967963 0.8627451543 0.9581906326
25
CONF6
C 3.5699482542 0.3078438427 -0.7748413408
C 2.5756694183 -0.1553280485 0.2461811361
C 2.9479701673 -0.6095705729 1.4323475098
C 1.1277710540 -0.0321563494 -0.1726151991
H 1.0905095099 0.0173649285 -1.2656709053
C 0.2516031993 -1.2069760202 0.2698260683
C -1.1244008205 -1.0861002400 -0.3766275598
C -1.7045043095 0.2819932390 -0.1554623924
C -0.9456349335 1.3328076875 0.1944410951
C 0.5251331488 1.2666371141 0.3822510188
C -3.1361239783 0.4452723499 -0.3183163455
O -3.9227410373 -0.4387548705 -0.6080664805
H 4.5820254706 0.2708212095 -0.3819159749
H 3.5162350249 -0.3232460510 -1.6611199180
H 3.3483124707 1.3289719422 -1.0812842792
H 2.2433030843 -0.9430201445 2.1736721114
H 3.9863787145 -0.6726265438 1.7103047245
H 0.7174003665 -2.1507253461 -0.0151688075
H 0.1378299769 -1.1971026891 1.3540285056
H -1.0579700854 -1.2707390876 -1.4528448268
H -1.8161190037 -1.8284091669 0.0279481029
H -1.4118024122 2.2937557735 0.3677628759
H 0.9900952569 2.1364566521 -0.0870931884
H 0.7391547070 1.3395454381 1.4538425157
H -3.5051121786 1.4759349246 -0.1557639050
25
CONF4
C 3.5881270700 -0.0325540478 -0.8464583911
C 2.5752288737 -0.1113729337 0.2535511482
C 2.9198028717 -0.3095833250 1.5162940144
C 1.1335231101 0.0452107343 -0.1787143655
H 1.1070779924 0.1613922187 -1.2665089032
C 0.2916549253 -1.1849322853 0.1790755988
C -1.0937427320 -1.0625610600 -0.4456937954
C -1.7109118380 0.2722749374 -0.1394386322
C -0.9803340311 1.3224884479 0.2680477399
C 0.4920722919 1.2895108689 0.4479499578
C -3.1470253347 0.4036687722 -0.2884823999
O -3.9089601262 -0.4828057359 -0.6324522161
H 4.5971549396 -0.1492913105 -0.4611176423
H 3.4008419463 -0.8136050528 -1.5822745013
H 3.5146008313 0.9274702034 -1.3556661808
H 2.1958178792 -0.3729951667 2.3105575225
H 3.9489344799 -0.4242870127 1.8104548134
H 0.7824408409 -2.0902089440 -0.1801751238
H 0.1980866134 -1.2601883084 1.2628429463
H -1.0332882933 -1.1799046277 -1.5317812538
H -1.7598686176 -1.8478213349 -0.0811086985
H -1.4736011388 2.2576819357 0.4982022404
H 0.9303506589 2.1963251185 0.0247841606
H 0.7051142330 1.3157453946 1.5212524136
H -3.5453303743 1.4105005897 -0.0597901535
25
CONF11
C 1.6196823210 -0.1414012925 1.7789176083
C 2.0610916235 -0.3023026133 0.3560131861
C 3.0165947020 -1.1606797835 0.0296395198
C 1.4065373785 0.5365085993 -0.7256013094
H 2.2072076714 0.9032391945 -1.3766652003
C 0.4690212943 -0.3292599958 -1.5832578773
C -0.6897586816 -0.8633216903 -0.7496953548
C -1.3697285192 0.2472137053 -0.0029703702
C -0.7552697429 1.4164678969 0.2416205118
C 0.6211030700 1.7449541287 -0.2070638089
C -2.7252144382 0.0297080898 0.4597222080
O -3.3851836752 -0.9786991346 0.2778818167
H 1.9912964174 0.7986255079 2.1854241100
H 0.5357743471 -0.1358677985 1.8615660022
H 2.0160187179 -0.9493890806 2.3885006330
H 3.3626482131 -1.2720590591 -0.9844242201
H 3.4926197785 -1.7901895646 0.7619542229
H 0.0749316718 0.2789988258 -2.3995699403
H 1.0236467265 -1.1623029045 -2.0147041891
H -1.4268586479 -1.3665433944 -1.3794834815
H -0.3251298474 -1.6053452081 -0.0332539385
H -1.2856681366 2.1960191009 0.7728438942
H 0.5278855479 2.4806558282 -1.0131841707
H 1.1609384939 2.2458256832 0.5978356780
H -3.1638187868 0.8774871909 1.0206944173
25
CONF7
C 3.0605934043 -1.1304418813 0.6836963185
C 2.5825139430 0.2027452088 0.1947394985
C 3.4050698861 1.2322152389 0.0626341649
C 1.1156310963 0.3356791505 -0.1379584947
H 0.9787437784 1.2604539853 -0.7079951144
C 0.5800854879 -0.8249197641 -0.9812318431
C -0.8372615415 -0.5083450578 -1.4517416843
C -1.6995741007 -0.0723855348 -0.3006895632
C -1.1784798299 0.3501197886 0.8634922633
C 0.2744596696 0.4470878797 1.1418816985
C -3.1410988004 -0.1143316588 -0.4719093512
O -3.9704624526 0.2160695737 0.3579510809
H 4.0756805690 -1.0553439925 1.0633773797
H 2.4192012507 -1.5113206312 1.4754367320
H 3.0514521826 -1.8536629757 -0.1301363046
H 3.0690458538 2.1892190193 -0.2999560402
H 4.4506525104 1.1619226658 0.3107366998
H 1.2260011763 -0.9889982267 -1.8446891273
H 0.5628734537 -1.7364587435 -0.3833646983
H -0.8126736028 0.2904720780 -2.1986594653
H -1.2812341548 -1.3849071748 -1.9280523548
H -1.8580136901 0.6317889783 1.6576741678
H 0.4871857538 1.3878984238 1.6544038140
H 0.5379843267 -0.3533389814 1.8403860148
H -3.4770303166 -0.4835579674 -1.4592466847
25
CONF26
C 3.1392292987 0.3158138023 1.0335020046
C 1.9306639780 -0.3576759667 0.4471722351
C 1.4388329188 -1.4561367868 0.9964758947
C 1.3866856159 0.3082260304 -0.7972907309
H 2.2540559627 0.5442704774 -1.4250136793
C 0.4329186844 -0.5370431607 -1.6492971790
C -0.9787632348 -0.7104323523 -1.0702047573
C -1.3557413356 0.3124627137 -0.0401728300
C -0.6015434191 1.3876237022 0.2326827984
C 0.6922304143 1.6376102928 -0.4475594088
C -2.5960973983 0.0967747867 0.6790227291
O -3.3447137081 -0.8536116415 0.5338129278
H 3.9115712397 0.4370327841 0.2758373007
H 2.8881153739 1.3040476857 1.4144033000
H 3.5443450660 -0.2696806409 1.8539556480
H 0.5850998056 -1.9815348964 0.6132344937
H 1.8861113579 -1.8838338101 1.8789999773
H 0.3504204695 -0.0441089221 -2.6195959415
H 0.8777148481 -1.5178662482 -1.8194198273
H -1.7148224303 -0.6577958799 -1.8777170742
H -1.1133152488 -1.6974081942 -0.6199256529
H -0.9317592037 2.0999087454 0.9758642103
H 0.4983169848 2.1843616410 -1.3751446161
H 1.3318795027 2.2661280292 0.1705026093
H -2.8447119363 0.8829420750 1.4171175098
25
CONF8
C 3.0324665991 -0.8646771986 1.0986669153
C 2.5886085323 0.1828502485 0.1225169050
C 3.4593678378 0.9614514550 -0.5019312983
C 1.1081305177 0.3134336353 -0.1413816628
H 0.9527082496 1.2087960123 -0.7522655531
C 0.5641338508 -0.8854982170 -0.9301626768
C -0.8572026337 -0.5895166002 -1.4011719877
C -1.7041194876 -0.0760298407 -0.2703387623
C -1.1706512592 0.3928912017 0.8703898318
C 0.2853787405 0.4656208522 1.1422233838
C -3.1464439949 -0.0914546396 -0.4381133959
O -3.9661953263 0.2985285982 0.3753807346
H 2.5170139669 -1.8055084000 0.9220255404
H 4.1027402171 -1.0315510264 1.0144904266
H 2.8209134915 -0.5458196607 2.1184118763
H 3.1497122099 1.7236211014 -1.1971235611
H 4.5207588030 0.8699608374 -0.3440612473
H 1.2057065653 -1.0891722749 -1.7883611126
H 0.5537153095 -1.7703727515 -0.2927782722
H -0.8371816339 0.1605688294 -2.1971101780
H -1.3121663203 -1.4912373245 -1.8163943712
H -1.8427050546 0.7295940437 1.6492751276
H 0.5197120090 1.4100998800 1.6379259053
H 0.5312881215 -0.3331996109 1.8478481559
H -3.4930258210 -0.4993464705 -1.4063982839
25
CONF5
C 3.3890447907 -0.7374238223 0.1022292521
C 2.0314486450 -0.2183093498 0.4713663581
C 1.4768029321 -0.4920826549 1.6418158623
C 1.3699367709 0.6231795660 -0.5969402401
H 2.1649467445 1.1580064968 -1.1271640235
C 0.6363959978 -0.2634776389 -1.6160021919
C -0.5050454820 -1.0291572779 -0.9547132046
C -1.3935391238 -0.0965663382 -0.1843178824
C -0.9637558982 1.1080008341 0.2298930701
C 0.3860107292 1.6579767069 -0.0404518087
C -2.7384551381 -0.5332660299 0.1377991781
O -3.5651010354 0.0998624721 0.7731241049
H 3.7681571430 -1.4142945645 0.8625547558
H 3.3516170095 -1.2642523601 -0.8493760015
H 4.0880347830 0.0910865526 -0.0056061056
H 0.5055540713 -0.1271865601 1.9285460450
H 1.9800272043 -1.1059028128 2.3705694520
H 0.2314826022 0.3749692162 -2.4029889528
H 1.3319323315 -0.9665055716 -2.0747165036
H -1.0902131997 -1.5595321524 -1.7082674149
H -0.0971814069 -1.7749568697 -0.2659920508
H -1.6528818858 1.7361020352 0.7806046012
H 0.2663825311 2.4712521466 -0.7636489215
H 0.7849528786 2.1098745590 0.8703750434
H -2.9998417259 -1.5387952372 -0.2428887152
25
CONF10
C 3.4866728543 0.8431659616 -0.5113471120
C 2.5780795917 -0.0709349380 0.2544375989
C 3.0173283992 -0.8098591067 1.2608069262
C 1.1358136072 -0.0523784356 -0.1980681804
H 1.1175758458 0.2001832530 -1.2635521600
C 0.4027179566 -1.3835371176 -0.0196080499
C -0.9605526085 -1.3143207365 -0.7030552896
C -1.7141993145 -0.0918953060 -0.2598892835
C -1.0998931482 0.9543980389 0.3172429863
C 0.3607240890 1.0363602435 0.5594805970
C -3.1517600501 -0.0610034242 -0.4644419042
O -3.8964898826 0.8588481813 -0.1732598217
H 3.0949774251 1.8589012877 -0.5071396709
H 4.4849759721 0.8511629835 -0.0832535043
H 3.5549112403 0.5188274030 -1.5489767432
H 2.3797192914 -1.4712798858 1.8197339759
H 4.0496822597 -0.7845873102 1.5664729606
H 0.9933912252 -2.1962719062 -0.4431853724
H 0.2556894002 -1.5833888385 1.0420689112
H -0.8340584113 -1.2822124117 -1.7890047440
H -1.5452548259 -2.2065898956 -0.4702986158
H -1.7052923595 1.7933995269 0.6356220619
H 0.7163553028 2.0305823716 0.2807129520
H 0.5382668231 0.9316402106 1.6351251035
H -3.5701132522 -0.9726474639 -0.9311139393
25
CONF9
C 3.6001362628 0.4168389342 -0.7120191179
C 2.5736904785 -0.0238681150 0.2851877312
C 2.9024660675 -0.4421787321 1.4973866328
C 1.1381977249 0.0400133552 -0.1891783833
H 1.1310643880 0.3705458133 -1.2323201130
C 0.4508029903 -1.3286594746 -0.1272827609
C -0.9176011195 -1.2562573338 -0.7990202534
C -1.7117516941 -0.0940431430 -0.2727244568
C -1.1340860847 0.9311470049 0.3760102601
C 0.3213944043 1.0448887684 0.6328417272
C -3.1487208429 -0.0968928238 -0.4816221801
O -3.9254912101 0.7731353067 -0.1274899465
H 3.4096617120 1.4453411480 -1.0155597811
H 4.6027333255 0.3527736323 -0.2987829780
H 3.5472325667 -0.2073396156 -1.6030486262
H 2.1693031566 -0.7635691168 2.2172611488
H 3.9279391608 -0.4854155386 1.8220015355
H 1.0692833163 -2.0781910819 -0.6224381374
H 0.3290421947 -1.6266316768 0.9143919632
H -0.7968032325 -1.1430521050 -1.8802761646
H -1.4703947083 -2.1823340904 -0.6290342120
H -1.7687443836 1.7258132121 0.7469291495
H 0.6484617574 2.0657105990 0.4226371608
H 0.4934212732 0.8796232672 1.7010334172
H -3.5345400323 -0.9851458461 -1.0165448424
