 xtb: 6.7.1 (edcfbbe)
          04112511193D

 14 13  0     0  0            999 V2000
   -1.3659   -0.0934    0.6602 C   0  0  0  0  0  0  0  0  0  0  0  0
    0.1053    0.3040    0.4328 C   0  0  0  0  0  0  0  0  0  0  0  0
    0.9030   -0.7805   -0.3046 C   0  0  0  0  0  0  0  0  0  0  0  0
    2.2242   -0.7750    0.1905 O   0  0  0  0  0  0  0  0  0  0  0  0
    0.2129    1.4893   -0.3252 O   0  0  0  0  0  0  0  0  0  0  0  0
   -2.1294   -0.1464   -0.5204 O   0  0  0  0  0  0  0  0  0  0  0  0
   -1.8537    0.6637    1.2792 H   0  0  0  0  0  0  0  0  0  0  0  0
   -1.3977   -1.0517    1.1947 H   0  0  0  0  0  0  0  0  0  0  0  0
    0.5771    0.4362    1.4190 H   0  0  0  0  0  0  0  0  0  0  0  0
    0.8885   -0.5456   -1.3747 H   0  0  0  0  0  0  0  0  0  0  0  0
    0.4454   -1.7635   -0.1301 H   0  0  0  0  0  0  0  0  0  0  0  0
    2.7742   -1.3574   -0.3516 H   0  0  0  0  0  0  0  0  0  0  0  0
   -0.3034    2.1909    0.0942 H   0  0  0  0  0  0  0  0  0  0  0  0
   -1.7520   -0.7966   -1.1271 H   0  0  0  0  0  0  0  0  0  0  0  0
  1  2  1  0  0  0  0
  2  3  1  0  0  0  0
  3  4  1  0  0  0  0
  2  5  1  0  0  0  0
  1  6  1  0  0  0  0
  1  7  1  0  0  0  0
  1  8  1  0  0  0  0
  2  9  1  0  0  0  0
  3 10  1  0  0  0  0
  3 11  1  0  0  0  0
  4 12  1  0  0  0  0
  5 13  1  0  0  0  0
  6 14  1  0  0  0  0
M  END
