 xtb: 6.7.1 (edcfbbe)
          04112511033D

 20 20  0     0  0            999 V2000
    1.6001   -1.9782   -0.6252 C   0  0  0  0  0  0  0  0  0  0  0  0
    1.3572   -1.1475    0.5045 O   0  0  0  0  0  0  0  0  0  0  0  0
    0.6584    0.0186    0.2385 C   0  0  0  0  0  0  0  0  0  0  0  0
    1.2872    1.2296    0.4988 C   0  0  0  0  0  0  0  0  0  0  0  0
    0.6417    2.4285    0.2594 C   0  0  0  0  0  0  0  0  0  0  0  0
   -0.6414    2.4286   -0.2597 C   0  0  0  0  0  0  0  0  0  0  0  0
   -1.2872    1.2299   -0.4989 C   0  0  0  0  0  0  0  0  0  0  0  0
   -0.6587    0.0187   -0.2383 C   0  0  0  0  0  0  0  0  0  0  0  0
   -1.3577   -1.1472   -0.5043 O   0  0  0  0  0  0  0  0  0  0  0  0
   -1.5996   -1.9787    0.6251 C   0  0  0  0  0  0  0  0  0  0  0  0
    2.0767   -2.8730   -0.2322 H   0  0  0  0  0  0  0  0  0  0  0  0
    2.2727   -1.4752   -1.3260 H   0  0  0  0  0  0  0  0  0  0  0  0
    0.6747   -2.2422   -1.1412 H   0  0  0  0  0  0  0  0  0  0  0  0
    2.2938    1.2036    0.8862 H   0  0  0  0  0  0  0  0  0  0  0  0
    1.1471    3.3586    0.4652 H   0  0  0  0  0  0  0  0  0  0  0  0
   -1.1465    3.3588   -0.4659 H   0  0  0  0  0  0  0  0  0  0  0  0
   -2.2937    1.2039   -0.8864 H   0  0  0  0  0  0  0  0  0  0  0  0
   -2.0767   -2.8732    0.2320 H   0  0  0  0  0  0  0  0  0  0  0  0
   -2.2714   -1.4761    1.3269 H   0  0  0  0  0  0  0  0  0  0  0  0
   -0.6737   -2.2432    1.1399 H   0  0  0  0  0  0  0  0  0  0  0  0
  1  2  1  0  0  0  0
  2  3  1  0  0  0  0
  3  4  4  0  0  0  0
  4  5  4  0  0  0  0
  5  6  4  0  0  0  0
  6  7  4  0  0  0  0
  3  8  4  0  0  0  0
  7  8  4  0  0  0  0
  8  9  1  0  0  0  0
  9 10  1  0  0  0  0
  1 11  1  0  0  0  0
  1 12  1  0  0  0  0
  1 13  1  0  0  0  0
  4 14  1  0  0  0  0
  5 15  1  0  0  0  0
  6 16  1  0  0  0  0
  7 17  1  0  0  0  0
 10 18  1  0  0  0  0
 10 19  1  0  0  0  0
 10 20  1  0  0  0  0
M  END
