  24
 
 C         -3.6254408505        0.2303373264       -0.0036835351
 C         -2.1348298545        0.0733882433        0.0135633828
 C         -1.5494784867       -1.1850439323        0.0148201405
 C         -0.1736110458       -1.3265796186        0.0096993318
 C          0.6608420858       -0.2172260368        0.0027810443
 C          0.0732629564        1.0419449532        0.0010606963
 C         -1.3012120993        1.1843232621        0.0061953647
 C          2.1607341685       -0.3831018189        0.0004626554
 C          2.7780593203        0.2331615358        1.2576479102
 C          2.7748428215        0.2282579133       -1.2606482899
 H         -3.9846167673        0.2678996313       -1.0330002413
 H         -4.1100789949       -0.6086126098        0.4907453341
 H         -3.9243454417        1.1523616855        0.4900476617
 H         -2.1772086833       -2.0652579140        0.0213840699
 H          0.2582591148       -2.3180079415        0.0126998591
 H          0.6927320045        1.9268346950       -0.0027107442
 H         -1.7352794880        2.1746151991        0.0060064168
 H          2.3848447644       -1.4560620483        0.0022346027
 H          3.8506950309        0.0529084438        1.2786614984
 H          2.3354336051       -0.2042362004        2.1498674051
 H          2.6104697892        1.3068644258        1.2838404955
 H          3.8480419078        0.0512340899       -1.2814364112
 H          2.6039412656        1.3012723763       -1.2928508525
 H          2.3330901098       -0.2155600082       -2.1501384915
          24
        -28.55111466
 C         -3.6321428913       -0.2373848525        0.0022146869
 C         -2.1426336631       -0.0687959098       -0.0022630372
 C         -1.5562320731        1.1878429463       -0.0001348566
 C         -0.1792305034        1.3272423838        0.0012566673
 C          0.6536038778        0.2173951096        0.0004006655
 C          0.0641877032       -1.0417464778       -0.0018180802
 C         -1.3096005280       -1.1818103250       -0.0030353592
 C          2.1537147904        0.3817825119        0.0013533656
 C          2.7697014646       -0.2299011549       -1.2587785383
 C          2.7685072191       -0.2352816538        1.2594242667
 H         -3.9550888011       -0.7216786781        0.9236472459
 H         -4.1334846076        0.7240910975       -0.0762706705
 H         -3.9475329992       -0.8647286518       -0.8304940561
 H         -2.1813284643        2.0699962332        0.0004383685
 H          0.2536534840        2.3182730453        0.0026343095
 H          0.6829726300       -1.9272835232       -0.0028569600
 H         -1.7470230842       -2.1707003945       -0.0046898379
 H          2.3784691978        1.4545562925        0.0037467366
 H          2.3265742558        0.2113481478       -2.1491278502
 H          2.6014770256       -1.3036235259       -1.2888774817
 H          3.8426041211       -0.0500798055       -1.2796900571
 H          2.3259770069        0.2035788540        2.1510898038
 H          3.8415931649       -0.0571611606        1.2811021859
 H          2.5985332590       -1.3087763424        1.2857961419
