 24

C      1.931000    -1.013000    -1.603000
C      1.885000    -1.036000    -0.112000
C      2.921000    -1.631000     0.608000
C      2.878000    -1.652000     2.002000
C      1.800000    -1.079000     2.676000
C      0.764000    -0.484000     1.955000
C      0.807000    -0.463000     0.561000
C      1.753000    -1.104000     4.166000
C      0.546000    -1.896000     4.704000
C      1.766000     0.309000     4.780000
H      2.438000    -0.108000    -1.948000
H      2.463000    -1.888000    -1.991000
H      0.920000    -1.036000    -2.025000
H      3.765000    -2.080000     0.092000
H      3.689000    -2.118000     2.555000
H     -0.081000    -0.036000     2.472000
H     -0.005000     0.002000     0.008000
H      2.652000    -1.614000     4.561000
H      0.526000    -1.905000     5.799000
H      0.566000    -2.937000     4.364000
H     -0.391000    -1.447000     4.357000
H      1.730000     0.252000     5.873000
H      0.904000     0.898000     4.447000
H      2.671000     0.861000     4.503000
