 xtb: 6.7.1 (edcfbbe)
          04112511133D

 21 21  0     0  0            999 V2000
   -3.3015    1.3545   -0.0330 C   0  0  0  0  0  0  0  0  0  0  0  0
   -1.9065    1.1505   -0.5275 C   0  0  0  0  0  0  0  0  0  0  0  0
   -1.5271    1.3045   -1.6664 O   0  0  0  0  0  0  0  0  0  0  0  0
   -1.0924    0.7745    0.4700 O   0  0  0  0  0  0  0  0  0  0  0  0
    0.2621    0.5915    0.2159 C   0  0  0  0  0  0  0  0  0  0  0  0
    1.0586    1.6970   -0.0392 C   0  0  0  0  0  0  0  0  0  0  0  0
    2.4202    1.5435   -0.2345 C   0  0  0  0  0  0  0  0  0  0  0  0
    2.9959    0.2838   -0.1709 C   0  0  0  0  0  0  0  0  0  0  0  0
    2.2039   -0.8187    0.0771 C   0  0  0  0  0  0  0  0  0  0  0  0
    0.8267   -0.6875    0.2656 C   0  0  0  0  0  0  0  0  0  0  0  0
    0.0490   -1.9267    0.4898 C   0  0  0  0  0  0  0  0  0  0  0  0
    0.5699   -3.0217    0.5954 O   0  0  0  0  0  0  0  0  0  0  0  0
   -1.2643   -1.7702    0.5530 O   0  0  0  0  0  0  0  0  0  0  0  0
   -3.4806    0.7282    0.8342 H   0  0  0  0  0  0  0  0  0  0  0  0
   -4.0050    1.1398   -0.8309 H   0  0  0  0  0  0  0  0  0  0  0  0
   -3.4130    2.3978    0.2563 H   0  0  0  0  0  0  0  0  0  0  0  0
    0.5987    2.6719   -0.0840 H   0  0  0  0  0  0  0  0  0  0  0  0
    3.0288    2.4106   -0.4345 H   0  0  0  0  0  0  0  0  0  0  0  0
    4.0565    0.1626   -0.3184 H   0  0  0  0  0  0  0  0  0  0  0  0
    2.6213   -1.8128    0.1251 H   0  0  0  0  0  0  0  0  0  0  0  0
   -1.7196   -2.6235    0.6974 H   0  0  0  0  0  0  0  0  0  0  0  0
  1  2  1  0  0  0  0
  2  3  2  0  0  0  0
  2  4  1  0  0  0  0
  4  5  1  0  0  0  0
  5  6  4  0  0  0  0
  6  7  4  0  0  0  0
  7  8  4  0  0  0  0
  8  9  4  0  0  0  0
  5 10  4  0  0  0  0
  9 10  4  0  0  0  0
 10 11  1  0  0  0  0
 11 12  2  0  0  0  0
 11 13  1  0  0  0  0
  1 14  1  0  0  0  0
  1 15  1  0  0  0  0
  1 16  1  0  0  0  0
  6 17  1  0  0  0  0
  7 18  1  0  0  0  0
  8 19  1  0  0  0  0
  9 20  1  0  0  0  0
 13 21  1  0  0  0  0
M  END
