24
 xtb: 6.7.1 (edcfbbe)
C           -2.63428487968882       -1.23308995434054       -0.30063503799656
C           -2.47511137286196        0.19398490128458        0.22194778214307
C           -1.15280192865835        0.89104224783299       -0.11714006945767
C            0.10679473173611        0.32832398901246        0.55573424659431
C            0.59983420061365       -1.02712108523633       -0.02743592607293
C            2.12502341495669       -0.90300046435409       -0.13376724773695
C            2.31480715302956        0.56342744609086       -0.52307643171668
C            1.32566276038151        1.28904559943931        0.39798485843586
H           -2.45014191836213       -1.28043946640582       -1.37996772759755
H           -1.94604133011374       -1.92841051995849        0.18707156896967
H           -3.65141666598877       -1.59732204215005       -0.12028211179685
H           -3.29082039662043        0.80494930824607       -0.18565726183733
H           -2.60669872869333        0.19883799077306        1.31269253159959
H           -1.00429221310419        0.89103485992623       -1.20770854678261
H           -1.25133446064483        1.94300256124780        0.18118840026408
H           -0.11446008939920        0.20546081164345        1.62363624018888
H            0.28918841493181       -1.88523012884393        0.57539754320062
H            0.18121163692025       -1.16545004822642       -1.03187847495663
H            2.59087669012871       -1.08798539270821        0.84292671921528
H            2.55943447453695       -1.60714822201659       -0.85109879766132
H            3.34420322824364        0.91780312748872       -0.40799499262099
H            2.02744438587225        0.70288910345594       -1.57328457750053
H            1.79621631167901        1.45830602372429        1.37323146215631
H            1.02636712937646        2.26773974887256        0.00865498179874
