 xtb: 6.7.1 (edcfbbe)
          04072505513D

 15 14  0     0  0            999 V2000
    2.6388   -0.8147   -0.0349 C   0  0  0  0  0  0  0  0  0  0  0  0
    1.9793    0.5384   -0.2783 C   0  0  0  0  0  0  0  0  0  0  0  0
    0.5693    0.6343    0.3079 C   0  0  0  0  0  0  0  0  0  0  0  0
   -0.4138   -0.2883   -0.3940 C   0  0  0  0  0  0  0  0  0  0  0  0
   -2.1398    0.0082    0.1425 S   0  0  0  0  0  0  0  0  0  0  0  0
    2.6495   -1.0473    1.0275 H   0  0  0  0  0  0  0  0  0  0  0  0
    3.6654   -0.8001   -0.3923 H   0  0  0  0  0  0  0  0  0  0  0  0
    2.1109   -1.6077   -0.5580 H   0  0  0  0  0  0  0  0  0  0  0  0
    1.9378    0.7364   -1.3515 H   0  0  0  0  0  0  0  0  0  0  0  0
    2.5913    1.3184    0.1789 H   0  0  0  0  0  0  0  0  0  0  0  0
    0.2114    1.6622    0.2115 H   0  0  0  0  0  0  0  0  0  0  0  0
    0.6011    0.3898    1.3722 H   0  0  0  0  0  0  0  0  0  0  0  0
   -0.4277   -0.1014   -1.4679 H   0  0  0  0  0  0  0  0  0  0  0  0
   -0.1957   -1.3394   -0.2153 H   0  0  0  0  0  0  0  0  0  0  0  0
   -1.9528   -0.3017    1.4195 H   0  0  0  0  0  0  0  0  0  0  0  0
  1  2  1  0  0  0  0
  2  3  1  0  0  0  0
  3  4  1  0  0  0  0
  4  5  1  0  0  0  0
  1  6  1  0  0  0  0
  1  7  1  0  0  0  0
  1  8  1  0  0  0  0
  2  9  1  0  0  0  0
  2 10  1  0  0  0  0
  3 11  1  0  0  0  0
  3 12  1  0  0  0  0
  4 13  1  0  0  0  0
  4 14  1  0  0  0  0
  5 15  1  0  0  0  0
M  END
