 xtb: 6.7.1 (edcfbbe)
          04112512193D

 17 16  0     0  0            999 V2000
   -2.4366    1.0504   -0.2480 C   0  0  0  0  0  0  0  0  0  0  0  0
   -1.8022   -0.0767    0.5653 C   0  0  0  0  0  0  0  0  0  0  0  0
   -0.4428   -0.4637    0.0397 C   0  0  0  0  0  0  0  0  0  0  0  0
   -0.1037   -1.6028   -0.2108 O   0  0  0  0  0  0  0  0  0  0  0  0
    0.3483    0.5885   -0.1152 O   0  0  0  0  0  0  0  0  0  0  0  0
    1.6896    0.3770   -0.5835 C   0  0  0  0  0  0  0  0  0  0  0  0
    2.6362    0.1098    0.5767 C   0  0  0  0  0  0  0  0  0  0  0  0
   -2.5876    0.7376   -1.2781 H   0  0  0  0  0  0  0  0  0  0  0  0
   -3.3996    1.3121    0.1801 H   0  0  0  0  0  0  0  0  0  0  0  0
   -1.7957    1.9271   -0.2401 H   0  0  0  0  0  0  0  0  0  0  0  0
   -2.4290   -0.9684    0.5580 H   0  0  0  0  0  0  0  0  0  0  0  0
   -1.6684    0.2507    1.5982 H   0  0  0  0  0  0  0  0  0  0  0  0
    1.6879   -0.4654   -1.2819 H   0  0  0  0  0  0  0  0  0  0  0  0
    1.9495    1.2999   -1.1030 H   0  0  0  0  0  0  0  0  0  0  0  0
    2.5838    0.9221    1.2965 H   0  0  0  0  0  0  0  0  0  0  0  0
    2.3661   -0.8207    1.0713 H   0  0  0  0  0  0  0  0  0  0  0  0
    3.6511    0.0278    0.2016 H   0  0  0  0  0  0  0  0  0  0  0  0
  1  2  1  0  0  0  0
  2  3  1  0  0  0  0
  3  4  2  0  0  0  0
  3  5  1  0  0  0  0
  5  6  1  0  0  0  0
  6  7  1  0  0  0  0
  1  8  1  0  0  0  0
  1  9  1  0  0  0  0
  1 10  1  0  0  0  0
  2 11  1  0  0  0  0
  2 12  1  0  0  0  0
  6 13  1  0  0  0  0
  6 14  1  0  0  0  0
  7 15  1  0  0  0  0
  7 16  1  0  0  0  0
  7 17  1  0  0  0  0
M  END
