  26
 
 C          1.8850000000       -1.0360000000       -0.1120000000
 C          2.9210000000       -1.6310000000        0.6080000000
 C          2.8780000000       -1.6520000000        2.0020000000
 C          1.8000000000       -1.0790000000        2.6760000000
 C          0.7640000000       -0.4840000000        1.9550000000
 C          0.8070000000       -0.4630000000        0.5610000000
 C         -0.2680000000        0.1540000000       -0.1870000000
 C         -1.0060000000       -0.6070000000       -1.0930000000
 C         -2.0420000000       -0.0170000000       -1.8170000000
 C         -2.3390000000        1.3340000000       -1.6350000000
 C         -1.6000000000        2.0950000000       -0.7290000000
 C         -0.5640000000        1.5040000000       -0.0050000000
 F          0.1380000000        2.2490000000        0.8610000000
 F         -3.3330000000        1.9010000000       -2.3320000000
 C          1.7370000000       -1.0890000000        4.1310000000
 O          2.2260000000       -1.9560000000        4.8600000000
 O          1.0660000000       -0.0150000000        4.6280000000
 O          3.9010000000       -2.2360000000        2.6880000000
 H          1.9330000000       -1.0280000000       -1.1990000000
 H          3.7590000000       -2.0750000000        0.0780000000
 H         -0.0760000000       -0.0360000000        2.4830000000
 H         -0.7870000000       -1.6610000000       -1.2460000000
 H         -2.6190000000       -0.6080000000       -2.5220000000
 H         -1.8310000000        3.1460000000       -0.5880000000
 H          1.0190000000       -0.0130000000        5.6080000000
 H          4.5640000000       -2.5810000000        2.0700000000
