  16
 
 C          2.7273378983       -0.0269592544       -0.7002245245
 C          1.9376591738        0.0000106014        0.6100475891
 C          0.4679044858       -0.0019690898        0.3250643339
 C         -0.2578855150       -1.1815666145        0.1540904783
 N         -1.5481766626       -1.1789130161       -0.1304296404
 C         -2.1373212773        0.0019757790       -0.2521711884
 C         -1.4255379410        1.1809862539       -0.0856542407
 N         -0.1336765273        1.1763771400        0.2009314546
 H          3.7948675090       -0.0215832550       -0.4953548711
 H          2.4830556984        0.8459582954       -1.3005559134
 H          2.4875424641       -0.9200016518       -1.2737659976
 H          2.1854916131        0.9071862438        1.1621300715
 H          2.1975848396       -0.8712112670        1.2143370746
 H          0.2068728622       -2.1536577484        0.2541897683
 H         -3.1928463562       -0.0093254464       -0.4851962614
 H         -1.8896896897        2.1533433296       -0.1813918298
          16
        -22.75301225
 C          2.7221848678        0.1536994599       -0.7039868258
 C          1.9362430417       -0.1399500176        0.5755097682
 C          0.4643998994       -0.0700857753        0.3093089540
 C         -0.2187169828        1.1443025794        0.2205598083
 N         -1.5096307930        1.2065574848       -0.0526612558
 C         -2.1442087553        0.0577677819       -0.2403273905
 C         -1.4772159159       -1.1549286970       -0.1469811774
 N         -0.1828658429       -1.2151531117        0.1242294372
 H          3.7902714096        0.0995480343       -0.5088811578
 H          2.4871932550        1.1474536308       -1.0793915753
 H          2.4719123132       -0.5737988728       -1.4724497200
 H          2.2047127206        0.5874092174        1.3443241874
 H          2.1776259494       -1.1420370888        0.9307250071
 H          0.2828949021        2.0902312096        0.3773453389
 H         -3.1997200025        0.1222413639       -0.4644066288
 H         -1.9799969831       -2.1020232531       -0.2896690650
