 16

C      0.791000     0.990000     1.155000
C      0.088000     0.394000    -0.055000
C     -0.321000    -1.018000     0.182000
C     -1.557000    -1.307000     0.717000
N     -1.957000    -2.574000     0.945000
C     -1.077000    -3.541000     0.619000
C      0.159000    -3.252000     0.083000
N      0.559000    -1.985000    -0.144000
H      1.088000     2.028000     0.971000
H      1.693000     0.416000     1.389000
H      0.143000     0.977000     2.038000
H      0.748000     0.445000    -0.929000
H     -0.794000     0.997000    -0.305000
H     -2.269000    -0.535000     0.984000
H     -1.399000    -4.559000     0.802000
H      0.865000    -4.029000    -0.180000
