 xtb: 6.7.1 (edcfbbe)
          04112511493D

 17 16  0     0  0            999 V2000
   -2.2270    0.6865   -0.8499 C   0  0  0  0  0  0  0  0  0  0  0  0
   -1.7839    0.5348    0.6002 C   0  0  0  0  0  0  0  0  0  0  0  0
   -0.8894   -0.6965    0.7960 C   0  0  0  0  0  0  0  0  0  0  0  0
    0.4050   -0.5499    0.0389 C   0  0  0  0  0  0  0  0  0  0  0  0
    0.7515   -1.2518   -0.8890 O   0  0  0  0  0  0  0  0  0  0  0  0
    1.1340    0.4512    0.5162 O   0  0  0  0  0  0  0  0  0  0  0  0
    2.3917    0.7476   -0.0963 C   0  0  0  0  0  0  0  0  0  0  0  0
   -2.7964   -0.1837   -1.1677 H   0  0  0  0  0  0  0  0  0  0  0  0
   -2.8499    1.5693   -0.9664 H   0  0  0  0  0  0  0  0  0  0  0  0
   -1.3655    0.7824   -1.5082 H   0  0  0  0  0  0  0  0  0  0  0  0
   -2.6615    0.4298    1.2388 H   0  0  0  0  0  0  0  0  0  0  0  0
   -1.2354    1.4233    0.9162 H   0  0  0  0  0  0  0  0  0  0  0  0
   -1.3922   -1.5952    0.4393 H   0  0  0  0  0  0  0  0  0  0  0  0
   -0.6500   -0.8050    1.8541 H   0  0  0  0  0  0  0  0  0  0  0  0
    3.0996    0.9274    0.7090 H   0  0  0  0  0  0  0  0  0  0  0  0
    2.2790    1.6414   -0.7091 H   0  0  0  0  0  0  0  0  0  0  0  0
    2.7100   -0.0915   -0.7160 H   0  0  0  0  0  0  0  0  0  0  0  0
  1  2  1  0  0  0  0
  2  3  1  0  0  0  0
  3  4  1  0  0  0  0
  4  5  2  0  0  0  0
  4  6  1  0  0  0  0
  6  7  1  0  0  0  0
  1  8  1  0  0  0  0
  1  9  1  0  0  0  0
  1 10  1  0  0  0  0
  2 11  1  0  0  0  0
  2 12  1  0  0  0  0
  3 13  1  0  0  0  0
  3 14  1  0  0  0  0
  7 15  1  0  0  0  0
  7 16  1  0  0  0  0
  7 17  1  0  0  0  0
M  END
