  16
 
 C         -1.2125439702        0.7481552553       -0.5339766092
 C         -1.4690502179       -0.6887916803       -0.0906634055
 C         -0.0675430262       -1.2356425102        0.1911264413
 C          0.8001368706       -0.0227177834        0.5765857851
 C         -0.1200760582        1.2046739781        0.4287885626
 O          1.9024326959        0.0102930220       -0.3076218870
 H         -2.1032053999        1.3733263449       -0.4857935671
 H         -0.8299579684        0.7573777087       -1.5552738141
 H         -2.0659984427       -0.6912708776        0.8235464813
 H         -1.9940141035       -1.2738601821       -0.8440733405
 H         -0.0690055838       -1.9982970814        0.9675276475
 H          0.3670322563       -1.6647703728       -0.7116559034
 H          1.1711822945       -0.1037100032        1.6099688347
 H         -0.5558074254        1.4538347185        1.3974344898
 H          0.4270598845        2.0732281886        0.0615428278
 H          2.4423728774        0.7827099145       -0.1105067234
          16
        -19.87846773
 C         -1.2588193426        0.8052460199       -0.4433857110
 C         -1.5347363465       -0.6408708395       -0.0394360451
 C         -0.1399142519       -1.2550378832        0.1065155398
 C          0.8108870545       -0.0896009404        0.4699222996
 C         -0.0675846720        1.1776506312        0.4360601770
 O          1.9148953876       -0.0052532913       -0.4007401728
 H         -2.1159156014        1.4573289211       -0.2828261067
 H         -0.9852564264        0.8547301810       -1.4996587265
 H         -2.0532586601       -0.6580000409        0.9202565283
 H         -2.1456278708       -1.1727951040       -0.7675580840
 H         -0.1169540676       -2.0440708935        0.8556316005
 H          0.1883570899       -1.6885451548       -0.8403278374
 H          1.2617528729       -0.2306627491        1.4552237315
 H         -0.4116629934        1.4134762287        1.4430681217
 H          0.4963203510        2.0299575021        0.0584128885
 H          1.5851178932        0.1531107210       -1.2929506031
