 16

C     -0.507000    -1.067000     1.839000
C      0.305000    -0.038000     1.051000
C      1.769000    -0.455000     1.185000
C      1.808000    -1.310000     2.442000
C      0.499000    -2.083000     2.373000
O      1.825000    -0.467000     3.588000
H     -1.270000    -1.548000     1.218000
H     -1.025000    -0.572000     2.669000
H      0.001000     0.000000    -0.000000
H      0.149000     0.961000     1.473000
H      2.058000    -1.054000     0.314000
H      2.424000     0.420000     1.242000
H      2.686000    -1.962000     2.475000
H      0.591000    -2.915000     1.665000
H      0.183000    -2.480000     3.342000
H      1.850000    -1.050000     4.363000
