 xtb: 6.7.1 (edcfbbe)
          04112511323D

 21 20  0     0  0            999 V2000
   -2.2317    1.0799    0.3145 C   0  0  0  0  0  0  0  0  0  0  0  0
   -1.8316   -0.3672    0.0532 C   0  0  0  0  0  0  0  0  0  0  0  0
   -0.5554   -0.5462   -0.7756 C   0  0  0  0  0  0  0  0  0  0  0  0
    0.7774   -0.1459   -0.0905 C   0  0  0  0  0  0  0  0  0  0  0  0
    1.1004    1.3374   -0.2913 C   0  0  0  0  0  0  0  0  0  0  0  0
    1.9134   -0.9802   -0.7010 C   0  0  0  0  0  0  0  0  0  0  0  0
    0.7261   -0.3603    1.3159 O   0  0  0  0  0  0  0  0  0  0  0  0
   -3.2362    1.1166    0.7310 H   0  0  0  0  0  0  0  0  0  0  0  0
   -2.2207    1.6567   -0.6076 H   0  0  0  0  0  0  0  0  0  0  0  0
   -1.5567    1.5412    1.0300 H   0  0  0  0  0  0  0  0  0  0  0  0
   -1.7174   -0.8767    1.0114 H   0  0  0  0  0  0  0  0  0  0  0  0
   -2.6411   -0.8615   -0.4898 H   0  0  0  0  0  0  0  0  0  0  0  0
   -0.4929   -1.6043   -1.0435 H   0  0  0  0  0  0  0  0  0  0  0  0
   -0.6455    0.0213   -1.7027 H   0  0  0  0  0  0  0  0  0  0  0  0
    0.3294    1.9626    0.1434 H   0  0  0  0  0  0  0  0  0  0  0  0
    1.1880    1.5612   -1.3499 H   0  0  0  0  0  0  0  0  0  0  0  0
    2.0420    1.5683    0.2011 H   0  0  0  0  0  0  0  0  0  0  0  0
    1.7444   -2.0425   -0.5342 H   0  0  0  0  0  0  0  0  0  0  0  0
    2.8619   -0.7042   -0.2461 H   0  0  0  0  0  0  0  0  0  0  0  0
    1.9726   -0.8035   -1.7710 H   0  0  0  0  0  0  0  0  0  0  0  0
    0.6961   -1.3112    1.4843 H   0  0  0  0  0  0  0  0  0  0  0  0
  1  2  1  0  0  0  0
  2  3  1  0  0  0  0
  3  4  1  0  0  0  0
  4  5  1  0  0  0  0
  4  6  1  0  0  0  0
  4  7  1  0  0  0  0
  1  8  1  0  0  0  0
  1  9  1  0  0  0  0
  1 10  1  0  0  0  0
  2 11  1  0  0  0  0
  2 12  1  0  0  0  0
  3 13  1  0  0  0  0
  3 14  1  0  0  0  0
  5 15  1  0  0  0  0
  5 16  1  0  0  0  0
  5 17  1  0  0  0  0
  6 18  1  0  0  0  0
  6 19  1  0  0  0  0
  6 20  1  0  0  0  0
  7 21  1  0  0  0  0
M  END
