  39
 
 C         -5.6511540020       -1.2938013242       -1.8435943438
 C         -4.5071440602       -0.2876601300       -1.8362892055
 C         -3.7314404481       -0.3411524951       -0.5219983900
 C         -2.5941733587        0.6858012189       -0.5178735972
 N         -1.6695258281        0.4250218764        0.5678287540
 C         -2.2126329561        0.3763587594        1.9121451565
 C         -2.9851229921        1.6549440402        2.2292310339
 C         -0.3617634267        0.2099602020        0.3308207250
 C          0.3720866311        0.9574190099       -0.6351056245
 C          1.7041245221        0.7084579774       -0.9136121470
 C          2.4063005322       -0.2424800301       -0.1868869842
 C          1.7485998328       -0.9696962375        0.7943749975
 C          0.3971504258       -0.7765651434        1.0229730411
 N         -0.2293379587       -1.7738653485        1.8594057118
 O         -1.3470638671       -2.1349845284        1.5539314661
 O          0.4245870256       -2.2334213597        2.7679424919
 C          3.8531116105       -0.5164706538       -0.4880301138
 F          4.4828920956        0.5512371367       -0.9926202937
 F          4.5371436727       -0.8983234562        0.5973529752
 F          3.9944832244       -1.5040985967       -1.3922348621
 N         -0.1725119377        2.1468204553       -1.2495432997
 O         -0.9473950699        2.8098619202       -0.5925381936
 O          0.2339184233        2.4425061319       -2.3503005588
 H         -6.1846219152       -1.2563013093       -2.7897505518
 H         -5.2708224765       -2.3027978639       -1.7028683422
 H         -6.3558297020       -1.0789988768       -1.0436185340
 H         -3.8325960422       -0.5020057600       -2.6680089224
 H         -4.9041799164        0.7192114214       -1.9825194167
 H         -4.4194857528       -0.1533589662        0.3021836651
 H         -3.3073717501       -1.3383228151       -0.3870531240
 H         -2.9890114269        1.7048815302       -0.4619165767
 H         -2.0551190927        0.5827958332       -1.4626016662
 H         -2.8495263848       -0.5040850036        2.0467374823
 H         -1.3775822914        0.3034932359        2.6128339551
 H         -3.1825318139        1.6924531849        3.2969135037
 H         -2.3969420793        2.5258597912        1.9506994843
 H         -3.9355990342        1.6927224599        1.7065206269
 H          2.1983050058        1.3051191896       -1.6673168146
 H          2.2687071059       -1.7272057096        1.3636073193
          39
        -75.06575338
 C         -4.5725743644       -0.7455474435       -2.8081039981
 C         -3.3867573948       -0.2333826088       -2.0003446204
 C         -3.8397280122        0.7178506238       -0.8944506139
 C         -2.6610619770        1.3114810444       -0.1152488660
 N         -1.9038694624        0.2847105155        0.5748163581
 C         -2.6431132075       -0.4915150259        1.5537613041
 C         -1.8510286506       -0.7057319326        2.8384086213
 C         -0.5781616105        0.1423563121        0.3732847358
 C          0.2663774474        1.2738253373        0.1604217232
 C          1.6091590346        1.1675034166       -0.1444652588
 C          2.2244975761       -0.0776442941       -0.1592774398
 C          1.4704033833       -1.2032610832        0.1219172131
 C          0.1052554306       -1.1077428314        0.3506341571
 N         -0.5731761377       -2.3772218905        0.4082208027
 O         -1.6932781423       -2.4413972555       -0.0584126924
 O          0.0392131105       -3.3212906041        0.8588935953
 C          3.6865823898       -0.1852461105       -0.4896737221
 F          3.9020528809       -0.1371128298       -1.8174007981
 F          4.4007762536        0.8161901838        0.0433273856
 F          4.2312000993       -1.3270522830       -0.0570357516
 N         -0.1803399245        2.6169254203        0.4579523040
 O         -0.9517197006        2.7503566145        1.3847009990
 O          0.2974092172        3.5227753707       -0.1854154592
 H         -5.1082313584        0.0798899960       -3.2722928494
 H         -4.2345953676       -1.4194066314       -3.5906454241
 H         -5.2640517479       -1.2867753005       -2.1668040232
 H         -2.8615826019       -1.0824531264       -1.5619073126
 H         -2.6939583146        0.2881096613       -2.6655535259
 H         -4.3861502848        1.5536923584       -1.3363004321
 H         -4.5230200287        0.1951592748       -0.2254836061
 H         -3.0193498272        2.0611191362        0.6005840476
 H         -2.0127401708        1.8075367232       -0.8407561349
 H         -3.5319100517        0.0941524264        1.7929619455
 H         -2.9713774370       -1.4526735100        1.1382702415
 H         -1.0327340196       -1.4111633565        2.7190502310
 H         -1.4428173105        0.2415985058        3.1847063001
 H         -2.5154151855       -1.0982067585        3.6032124992
 H          2.1809599105        2.0696986345       -0.3097673584
 H          1.9257496296       -2.1835465241        0.1333840565
