 39

C     -5.901000     4.644000     1.664000
C     -4.696000     3.722000     1.561000
C     -3.586000     4.143000     2.526000
C     -2.363000     3.236000     2.445000
N     -1.323000     3.634000     3.352000
C     -0.751000     4.980000     3.225000
C     -0.137000     5.146000     1.889000
C     -0.853000     2.775000     4.360000
C      0.210000     1.911000     4.100000
C      0.676000     1.057000     5.100000
C      0.079000     1.068000     6.360000
C     -0.985000     1.932000     6.620000
C     -1.451000     2.785000     5.620000
N     -2.538000     3.656000     5.915000
O     -3.707000     3.254000     5.711000
O     -2.292000     4.798000     6.369000
C      0.577000     0.156000     7.430000
F      1.621000    -0.632000     7.035000
F      1.026000     0.810000     8.541000
F     -0.383000    -0.706000     7.875000
N      0.841000     1.877000     2.824000
O      1.816000     2.635000     2.612000
O      0.401000     1.092000     1.952000
H     -6.691000     4.337000     0.971000
H     -6.311000     4.620000     2.679000
H     -5.625000     5.678000     1.434000
H     -5.010000     2.695000     1.781000
H     -4.327000     3.735000     0.529000
H     -3.293000     5.180000     2.319000
H     -3.973000     4.116000     3.552000
H     -1.942000     3.226000     1.434000
H     -2.640000     2.210000     2.708000
H     -1.571000     5.673000     3.382000
H     -0.023000     5.076000     4.024000
H      0.297000     6.145000     1.770000
H      0.636000     4.392000     1.707000
H     -0.916000     5.024000     1.126000
H      1.507000     0.382000     4.903000
H     -1.448000     1.935000     7.605000
