26
 xtb: 6.7.1 (edcfbbe)
C           -2.52033796793001        0.63991393849927        0.51064450997705
C           -1.27171821576183       -0.24521611319157        0.47011173611554
C           -1.60827530509307       -1.54147693274597       -0.27343137587205
C           -0.04882956420226        0.46878558364297       -0.15619815083697
C            0.15068206062041        1.86782480872990        0.43274697629365
C            1.22530502789776       -0.44362100573076       -0.07426913423570
C            1.61823138568393       -0.95315386933107       -1.46303964279038
C            2.44700798468227        0.19055459116670        0.59662894122026
H           -3.38240829142654        0.06513907019935        0.86667310922472
H           -2.40158071928291        1.49992785277200        1.17511052234255
H           -2.76193357668629        1.01528576874717       -0.49198063993835
H           -1.00014085416406       -0.50049304942151        1.50658775872025
H           -2.44791943354113       -2.05504371047497        0.20741924289343
H           -0.76849268710710       -2.24158375295346       -0.30390047609018
H           -1.90076458933355       -1.32097082140150       -1.30770619487644
H           -0.28301588678186        0.60595425968898       -1.22348263972979
H            1.04848593045715        2.34461615990347        0.02988908243600
H            0.24472335597302        1.84014796942627        1.52454804796859
H           -0.69419881581739        2.51680679649201        0.18726901073596
H            0.96052172277755       -1.31657344683281        0.53721924959833
H            2.45580021948027       -1.65828337805883       -1.40614977669089
H            0.78298165244947       -1.45873462552202       -1.95866437917518
H            1.92766635817627       -0.11700457115837       -2.10255212573070
H            3.24199892855905       -0.55763725363644        0.69076808626656
H            2.22183739946596        0.56109131693234        1.60117455730274
H            2.84828627902885        1.02285389481186        0.00844022167441
