23
CONF1
C -2.4347705133 0.8146543648 0.5386893387
C -1.2795420378 -0.1396955486 0.2347881402
C -1.6320782128 -1.0115768396 -0.9683778419
C -0.0000334063 0.6720645043 0.0000485899
C 1.2794760081 -0.1396494386 -0.2347505426
C 2.4346871924 0.8146785363 -0.5387820421
C 1.6322467945 -1.0114845582 0.9683970359
H -2.6149906276 1.4727022012 -0.3088641998
H -3.3471109562 0.2582362116 0.7406923511
H -2.2085187560 1.4285474638 1.4074932713
H -1.1374763331 -0.7862482309 1.1064372545
H -2.5850585927 -1.5099389547 -0.8049174854
H -1.7133894214 -0.4020360139 -1.8659786475
H -0.8772282946 -1.7750610606 -1.1357357584
H 0.1611121373 1.3195913229 0.8662180663
H -0.1611945925 1.3196278435 -0.8660962595
H 1.1373271407 -0.7862466627 -1.1063515356
H 2.2082551717 1.4287135580 -1.4074373594
H 2.6151290489 1.4725945897 0.3088269202
H 3.3469602471 0.2582581981 -0.7410830893
H 1.7147475229 -0.4017496771 1.8657528173
H 0.8769142863 -1.7743025432 1.1365617592
H 2.5846909444 -1.5106643794 0.8043308125
23
CONF2
C -1.6576926676 0.9802248924 -0.9919714053
C -1.2792813362 0.1506181916 0.2331291524
C -2.4243366758 -0.7977185197 0.5895332874
C -0.0000055467 -0.6620836117 0.0002582990
C 1.2792262680 0.1505349192 -0.2331961838
C 1.6578521707 0.9808664058 0.9913141807
C 2.4242129606 -0.7981287214 -0.5890761631
H -2.6065698035 1.4854639308 -0.8256420901
H -0.9062010022 1.7362092691 -1.2029573199
H -1.7589895212 0.3393738000 -1.8654941172
H -1.1245821959 0.8267884325 1.0797659960
H -2.6111460000 -1.4897648470 -0.2290506863
H -2.1830620853 -1.3754780352 1.4789802283
H -3.3374957836 -0.2390507852 0.7814369560
H -0.1613001065 -1.3100304018 -0.8655033600
H 0.1614581173 -1.3092466947 0.8665892780
H 1.1245869912 0.8262507530 -1.0802033638
H 2.6064140645 1.4863905851 0.8243925941
H 0.9062344114 1.7366891744 1.2022016353
H 1.7596819806 0.3406445529 1.8651721216
H 2.1844224736 -1.3732987536 -1.4803646716
H 3.3384681068 -0.2400745229 -0.7774727490
H 2.6083762128 -1.4922704889 0.2282548065
23
CONF3
C -1.6841637078 0.9554641184 -1.0057039249
C -1.2787944578 0.1579481778 0.2320715067
C -2.4127941191 -0.7861179327 0.6322347222
C 0.0004476291 -0.6533850896 -0.0062261494
C 1.2787588855 0.1636266747 -0.2298025984
C 1.6818035523 0.9418631702 1.0209858845
C 2.4147569984 -0.7721683133 -0.6435747658
H -1.8183910498 0.2901271216 -1.8561614530
H -2.6218979021 1.4768115995 -0.8272694291
H -0.9309170582 1.6955175897 -1.2617448812
H -1.1121691461 0.8557832650 1.0585970257
H -3.3272051954 -0.2274786410 0.8180599463
H -2.6050927154 -1.5044371566 -0.1620478331
H -2.1567465620 -1.3341905203 1.5360528204
H -0.1604410126 -1.2931940484 -0.8780712129
H 0.1621885576 -1.3085960054 0.8539073776
H 1.1119335788 0.8743427637 -1.0452481388
H 0.9275074018 1.6772137441 1.2875107204
H 1.8153376901 0.2632915805 1.8610520796
H 2.6193617938 1.4668212803 0.8518782936
H 2.1584788423 -1.3100041531 -1.5534414328
H 3.3271931554 -0.2087014520 -0.8244561672
H 2.6106834819 -1.4994754416 0.1415649118
23
CONF4
C -2.4219972881 0.7582351063 0.6168272571
C -1.2847838884 -0.1709334277 0.1918822964
C -1.6757961506 -0.9138493111 -1.0839906018
C -0.0001620705 0.6450925662 0.0028398933
C 1.2836355763 -0.1711920632 -0.1908718445
C 2.4200465162 0.7570710496 -0.6197622182
C 1.6789138201 -0.9144780934 1.0834336750
H -3.3420892395 0.1959151679 0.7585421486
H -2.1803992114 1.2604115199 1.5508060438
H -2.5964416537 1.5151270845 -0.1450921939
H -1.1302373130 -0.9044133454 0.9894691838
H -1.8072765675 -0.2113620811 -1.9044455035
H -0.9158683346 -1.6368022779 -1.3676801501
H -2.6115515010 -1.4484812754 -0.9372165800
H 0.1358341178 1.2901980422 0.8748125956
H -0.1357209981 1.2949416330 -0.8657005655
H 1.1257924990 -0.9043994191 -0.9879786488
H 2.6002419085 1.5115776343 0.1431559988
H 3.3382619668 0.1934952745 -0.7683466568
H 2.1739680850 1.2622881956 -1.5509176773
H 2.6080366526 -1.4587073690 0.9296820591
H 1.8247885793 -0.2109637012 1.9005710904
H 0.9143709002 -1.6290109378 1.3760671716
23
CONF5
C -2.4146963155 0.7208655333 0.6580948832
C -1.2847732500 -0.1850067703 0.1689795007
C -1.6954278002 -0.8606377812 -1.1378464219
C -0.0000045533 0.6355625942 -0.0003711922
C 1.2849000016 -0.1849210404 -0.1690973238
C 2.4149234308 0.7210778716 -0.6577517353
C 1.6950903049 -0.8604127971 1.1379491341
H -3.3349525247 0.1535354919 0.7769120533
H -2.1620655506 1.1682375448 1.6166684486
H -2.5944465243 1.5203533977 -0.0576577621
H -1.1187054458 -0.9597652841 0.9242127086
H -2.6113768466 -1.4301563346 -0.9972985893
H -1.8711119377 -0.1136493386 -1.9093225285
H -0.9247584010 -1.5420207545 -1.4881167491
H 0.1225305464 1.2833012040 0.8714138293
H -0.1226153624 1.2826411758 -0.8726365769
H 1.1192356045 -0.9597475651 -0.9243567236
H 2.1628339994 1.1680810402 -1.6166380195
H 2.5939740157 1.5208411399 0.0578699509
H 3.3354127892 0.1539559575 -0.7757520237
H 2.6114696561 -1.4293750514 0.9979548935
H 1.8698171907 -0.1133825032 1.9095992865
H 0.9246179539 -1.5423015793 1.4876620765
23
CONF6
C -1.9342094693 -0.8206518621 0.7407261562
C -1.2125340059 -0.1938962259 -0.4507033569
C -2.1818420387 0.6915123820 -1.2333176158
C -0.0000118943 0.6306902657 0.0000449043
C 1.2125238435 -0.1940136046 0.4505504821
C 1.9344395376 -0.8200809259 -0.7410948592
C 2.1816335509 0.6910707948 1.2337751553
H -2.7805615783 -1.4137835836 0.4017339225
H -1.2705770712 -1.4702023726 1.3053242542
H -2.3045673280 -0.0445373457 1.4074745907
H -0.8732479013 -0.9968587193 -1.1130128912
H -1.7015127376 1.0979025351 -2.1204203310
H -3.0528500849 0.1204913089 -1.5466275522
H -2.5192979083 1.5204596231 -0.6146379505
H -0.3150057942 1.2778993637 0.8223119336
H 0.3149687615 1.2781450387 -0.8220333423
H 0.8732163940 -0.9973531945 1.1123892298
H 2.3051665314 -0.0435760233 -1.4071845179
H 2.7805650007 -1.4136280741 -0.4022616552
H 1.2708376016 -1.4690905774 -1.3063485474
H 2.5189552028 1.5204869631 0.6156512416
H 1.7011790864 1.0967852877 2.1211181436
H 3.0527375006 0.1200120400 1.5467514883
23
CONF7
C -1.7379261243 -0.6209960535 1.0089892011
C -1.2598174155 -0.3380005314 -0.4129803303
C -2.3551653654 0.3901240538 -1.1917456652
C 0.0308256027 0.4901421572 -0.4376217316
C 1.2589089134 -0.2204295151 0.1623198567
C 2.4780400607 -0.0515879442 -0.7448785552
C 1.5872240317 0.3067995533 1.5586893756
H -2.6748052652 -1.1736575359 0.9874606573
H -1.0095928693 -1.2131773591 1.5561066240
H -1.9034025496 0.3116009659 1.5445153587
H -1.0625833500 -1.2954670539 -0.9097761450
H -3.2695115639 -0.1984751035 -1.2062175969
H -2.5726633314 1.3501628887 -0.7284237653
H -2.0454252173 0.5671832083 -2.2191690136
H -0.1419629459 1.4300134499 0.0907191987
H 0.2419218985 0.7406863012 -1.4795045951
H 1.0427037609 -1.2919555311 0.2372000107
H 2.2885772881 -0.4777164318 -1.7274590252
H 2.7164588450 1.0032021125 -0.8651417360
H 3.3441462210 -0.5516391063 -0.3167587000
H 0.7328157153 0.2162181755 2.2232700588
H 2.4172605656 -0.2492468588 1.9897511079
H 1.8711601029 1.3559932384 1.5054036434
23
CONF8
C -2.5161844943 0.5665002401 0.6547964828
C -1.3382709851 -0.2119550035 0.0703911149
C -1.5359962066 -0.4006967094 -1.4320581760
C -0.0228992179 0.5150292965 0.3741312844
C 1.2376584258 -0.3190092373 0.0687898757
C 2.0837618299 0.3324621855 -1.0240014756
C 2.0784326697 -0.5202421683 1.3291633333
H -2.5652055884 1.5613403160 0.2170729219
H -3.4528296647 0.0542204747 0.4477372226
H -2.4131627531 0.6702658409 1.7325133911
H -1.3063161437 -1.1987940888 0.5470453068
H -0.7158032014 -0.9656417711 -1.8673004336
H -2.4612693286 -0.9378186656 -1.6286559037
H -1.5892530372 0.5664940641 -1.9279568978
H -0.0211415767 0.7912474328 1.4303538889
H 0.0003142773 1.4433594412 -0.2000124538
H 0.9288245444 -1.3086997058 -0.2846916096
H 2.9473288373 -0.2865278291 -1.2586543715
H 1.5016577668 0.4670688784 -1.9325478901
H 2.4407782352 1.3062454683 -0.6947622507
H 2.9499805158 -1.1344408289 1.1128539709
H 2.4218723767 0.4381596616 1.7132392401
H 1.4950782158 -1.0146940084 2.1026431267
23
CONF11
C -2.4336576090 0.9053122091 -0.2410050057
C -1.1293990516 0.3021852652 0.2863921614
C -1.3629966041 -1.1633527164 0.6454895821
C -0.0350199926 0.5083139996 -0.7703907800
C 1.4231223692 0.1710375357 -0.4047286921
C 1.8119167740 0.6736504092 0.9839388506
C 1.7621989023 -1.3119119097 -0.5542541882
H -2.3062129660 1.9596874603 -0.4758321200
H -2.7508889388 0.3887526126 -1.1445704480
H -3.2237416413 0.8143474147 0.5008525515
H -0.8525694182 0.8459954738 1.1946652100
H -0.5367301449 -1.5679303355 1.2220847506
H -2.2649364023 -1.2593229437 1.2469738796
H -1.4868754468 -1.7615680373 -0.2543962365
H -0.0595469541 1.5669300144 -1.0443465140
H -0.3049206624 -0.0597260335 -1.6643962709
H 2.0429984046 0.7081409856 -1.1345945382
H 1.3030452247 0.1072663316 1.7595899865
H 2.8837373549 0.5629073605 1.1334222536
H 1.5578303869 1.7252047216 1.0956106977
H 2.8357858014 -1.4564878094 -0.4501976065
H 1.2680957295 -1.9149287265 0.2003404174
H 1.4639590691 -1.6749993098 -1.5350452801
23
CONF13
C -1.5556941736 1.1189504192 0.5124281385
C -1.1471367591 -0.2809234574 0.0591779392
C -2.3156234308 -0.9196310201 -0.6960180422
C 0.0896947335 -0.2873647703 -0.8510616466
C 1.4779003007 -0.0697120041 -0.2216588707
C 1.7660829979 1.3794194594 0.1685833642
C 1.7319470687 -0.9980510333 0.9645075007
H -0.8245015631 1.5513437166 1.1869171420
H -1.6662817310 1.7784175877 -0.3456978714
H -2.5090743615 1.0769140069 1.0355971717
H -0.9451396860 -0.8926308501 0.9431236923
H -3.2063443102 -0.9431248523 -0.0722702378
H -2.5415782161 -0.3482916931 -1.5941511088
H -2.0778841882 -1.9398005969 -0.9890991449
H -0.0532186674 0.4594069421 -1.6364377425
H 0.1207789197 -1.2647219586 -1.3410910623
H 2.1960584237 -0.3348851498 -1.0086753652
H 1.2378551163 1.6583992232 1.0754159452
H 2.8310302373 1.5065925488 0.3530063773
H 1.4738312265 2.0593186392 -0.6278305764
H 1.5021461403 -2.0281992543 0.7025436483
H 2.7765147779 -0.9442311179 1.2629626424
H 1.1236809597 -0.7115234480 1.8188612695
23
CONF12
C -1.4980913073 1.0555839467 0.5942188434
C -1.1531367953 -0.3224157201 0.0340982223
C -2.3334396109 -0.8393151071 -0.7922532024
C 0.1012904802 -0.3262052784 -0.8511675847
C 1.4755051309 -0.0955022450 -0.1946270949
C 1.7936375833 1.3764449226 0.0666210340
C 1.6608878711 -0.9170677683 1.0793339533
H -2.4862190551 1.0353241797 1.0498262057
H -0.7890470209 1.3645420757 1.3558576470
H -1.5028219721 1.7995179304 -0.1992458381
H -1.0019135278 -1.0131636129 0.8689433884
H -2.5180804103 -0.1825834314 -1.6398959310
H -2.1334178060 -1.8393543660 -1.1705262874
H -3.2357843999 -0.8784562247 -0.1862769564
H -0.0304960591 0.4160696302 -1.6426779592
H 0.1418778408 -1.3062637992 -1.3350914403
H 2.2133095260 -0.4502085594 -0.9262805373
H 1.1956294655 1.7775954181 0.8784098534
H 2.8419125938 1.4836486167 0.3385445290
H 1.6104713277 1.9724255199 -0.8242578511
H 1.4157346860 -1.9615247474 0.9008539067
H 2.6948599102 -0.8600116348 1.4124180993
H 1.0280235852 -0.5415234137 1.8794065945
23
CONF14
C -1.5185523793 1.0839335521 0.5594657411
C -1.1514461874 -0.3060732955 0.0447282534
C -2.3279814074 -0.8712311781 -0.7550839903
C 0.0966362315 -0.3153917721 -0.8494764159
C 1.4763076848 -0.0852631309 -0.2052485908
C 1.7787226785 1.3799395068 0.1073854148
C 1.6930278303 -0.9502053439 1.0346415461
H -1.5523876974 1.7973679839 -0.2609218734
H -2.4989272536 1.0590841634 1.0313631488
H -0.8050149481 1.4376989039 1.2965234794
H -0.9821919854 -0.9650371452 0.9014324691
H -3.2271962369 -0.8991258142 -0.1438806886
H -2.5253000335 -0.2503781415 -1.6266693648
H -2.1157091582 -1.8823670696 -1.0952738489
H -0.0397694273 0.4237502688 -1.6432383588
H 0.1343410224 -1.2973426048 -1.3299019227
H 2.2063701049 -0.4027314716 -0.9613753388
H 2.8377803007 1.4984222634 0.3281014318
H 1.5346023734 2.0131919827 -0.7421057815
H 1.2189849928 1.7277481243 0.9699388468
H 2.7312001134 -0.8908950338 1.3539023278
H 1.0680981383 -0.6124661446 1.8575867343
H 1.4584302691 -1.9907657384 0.8222883271
23
CONF9
C -2.1273465590 1.1649236256 0.1701085927
C -1.0850164321 0.0472686090 0.2084019109
C -1.7741868357 -1.3019040187 0.0069397046
C 0.0049467141 0.2861448873 -0.8532392109
C 1.4542482729 0.0713213789 -0.3891307891
C 1.8734501199 1.1060439564 0.6542781546
C 1.7010412607 -1.3435135997 0.1292237048
H -1.6659025544 2.1281037770 0.3757347314
H -2.5989783241 1.2092722969 -0.8095435731
H -2.9013592651 0.9907913713 0.9146140646
H -0.6287141408 0.0518126225 1.2023767098
H -2.2898882947 -1.3216842529 -0.9513038607
H -1.0544069484 -2.1152059642 0.0266763063
H -2.5077828547 -1.4748694268 0.7918536576
H -0.0704922583 1.3139814983 -1.2152474914
H -0.1842744601 -0.3674901460 -1.7076271910
H 2.0885592976 0.2179345761 -1.2724607202
H 1.3002554910 0.9935541126 1.5710788850
H 2.9267556786 0.9881911310 0.8984642801
H 1.7197645852 2.1138695590 0.2753748430
H 1.4167694283 -2.0796188072 -0.6192384214
H 2.7559370551 -1.4795593606 0.3578382196
H 1.1320381566 -1.5299830759 1.0363205492
23
CONF10
C -1.9188131627 1.2315951172 0.2242731161
C -1.0842413968 -0.0465696038 0.1528485869
C -1.9858718001 -1.2419011028 -0.1531230896
C 0.0376496523 0.0815971365 -0.8966956386
C 1.4696791840 0.0542846626 -0.3412594350
C 1.7339854798 1.2118478220 0.6194819100
C 1.7982637184 -1.2846025005 0.3168206531
H -2.6853104205 1.1450695359 0.9917229762
H -1.2912905544 2.0870404940 0.4621857316
H -2.4099217829 1.4170960701 -0.7290674886
H -0.6406490834 -0.2103599579 1.1388799859
H -1.4088823963 -2.1636356010 -0.1633744997
H -2.7658234424 -1.3347112339 0.5999201731
H -2.4614975697 -1.1200016557 -1.1242946151
H -0.0929793544 1.0151909797 -1.4479621709
H -0.0537514239 -0.7306798682 -1.6208413199
H 2.1416359671 0.1750698232 -1.2002334497
H 2.7765257842 1.2123355554 0.9300414473
H 1.5201144471 2.1629498822 0.1370461791
H 1.1159018809 1.1305435053 1.5099713485
H 1.6347119229 -2.1017892655 -0.3821232485
H 2.8396194469 -1.3048502786 0.6302059359
H 1.1779878195 -1.4537665869 1.1933133896
