 xtb: 6.7.1 (edcfbbe)
          04112512293D

 23 22  0     0  0            999 V2000
   -1.4768    1.0119    0.6437 C   0  0  0  0  0  0  0  0  0  0  0  0
   -1.1528   -0.3484    0.0304 C   0  0  0  0  0  0  0  0  0  0  0  0
   -2.3401   -0.8145   -0.8158 C   0  0  0  0  0  0  0  0  0  0  0  0
    0.1021   -0.3400   -0.8541 C   0  0  0  0  0  0  0  0  0  0  0  0
    1.4734   -0.0976   -0.1952 C   0  0  0  0  0  0  0  0  0  0  0  0
    1.7936    1.3816    0.0196 C   0  0  0  0  0  0  0  0  0  0  0  0
    1.6470   -0.8793    1.1052 C   0  0  0  0  0  0  0  0  0  0  0  0
   -2.4662    0.9891    1.0966 H   0  0  0  0  0  0  0  0  0  0  0  0
   -0.7647    1.2782    1.4189 H   0  0  0  0  0  0  0  0  0  0  0  0
   -1.4680    1.7865   -0.1198 H   0  0  0  0  0  0  0  0  0  0  0  0
   -1.0125   -1.0729    0.8384 H   0  0  0  0  0  0  0  0  0  0  0  0
   -2.5210   -0.1161   -1.6303 H   0  0  0  0  0  0  0  0  0  0  0  0
   -2.1504   -1.7969   -1.2424 H   0  0  0  0  0  0  0  0  0  0  0  0
   -3.2410   -0.8743   -0.2095 H   0  0  0  0  0  0  0  0  0  0  0  0
   -0.0354    0.4031   -1.6438 H   0  0  0  0  0  0  0  0  0  0  0  0
    0.1490   -1.3187   -1.3402 H   0  0  0  0  0  0  0  0  0  0  0  0
    2.2161   -0.4774   -0.9091 H   0  0  0  0  0  0  0  0  0  0  0  0
    1.1680    1.8202    0.7898 H   0  0  0  0  0  0  0  0  0  0  0  0
    2.8320    1.4929    0.3259 H   0  0  0  0  0  0  0  0  0  0  0  0
    1.6493    1.9412   -0.9017 H   0  0  0  0  0  0  0  0  0  0  0  0
    1.4058   -1.9292    0.9559 H   0  0  0  0  0  0  0  0  0  0  0  0
    2.6777   -0.8102    1.4464 H   0  0  0  0  0  0  0  0  0  0  0  0
    1.0056   -0.4815    1.8874 H   0  0  0  0  0  0  0  0  0  0  0  0
  1  2  1  0  0  0  0
  2  3  1  0  0  0  0
  2  4  1  0  0  0  0
  4  5  1  0  0  0  0
  5  6  1  0  0  0  0
  5  7  1  0  0  0  0
  1  8  1  0  0  0  0
  1  9  1  0  0  0  0
  1 10  1  0  0  0  0
  2 11  1  0  0  0  0
  3 12  1  0  0  0  0
  3 13  1  0  0  0  0
  3 14  1  0  0  0  0
  4 15  1  0  0  0  0
  4 16  1  0  0  0  0
  5 17  1  0  0  0  0
  6 18  1  0  0  0  0
  6 19  1  0  0  0  0
  6 20  1  0  0  0  0
  7 21  1  0  0  0  0
  7 22  1  0  0  0  0
  7 23  1  0  0  0  0
M  END
