22
 xtb: 6.7.1 (edcfbbe)
C           -3.33706383693691        0.81037518419221        0.21877361235585
C           -2.69008131457009        0.31456737910305        1.34906885531814
C           -1.50925342606477       -0.40981019215827        1.21442168107901
C           -0.96579060484814       -0.64531172969087       -0.05026979925479
C           -1.62125746854817       -0.14957909799429       -1.17913430345661
C           -2.80210216001235        0.57547408219931       -1.04594927278929
C            0.33326110195294       -1.38477330657686       -0.19272875677237
N            1.49484048942525       -0.47325265583500       -0.10536282835294
C            1.49456141855205        0.90202169860735       -0.02049877491697
C            2.81490671901376        1.26975809027867        0.01529539512852
N            3.62968613487224        0.15754141833263       -0.04710726876479
C            2.79509324294101       -0.86912721540484       -0.11904036590276
H           -4.25792928743397        1.37539993033688        0.32315409396047
H           -3.10674086619338        0.49085606189379        2.33576532107775
H           -1.00169525748470       -0.79485953313873        2.09463038315263
H           -1.20056714997164       -0.33116397173209       -2.16433297936314
H           -3.30561307825053        0.95565729267541       -1.92921640640980
H            0.43691184888642       -2.13223457196198        0.59911253611624
H            0.37504578440055       -1.89760930014984       -1.15815613737675
H            0.58396024375780        1.47929765930764        0.00727715550024
H            3.21842781691980        2.27007237394191        0.08412935103868
H            3.07407049310327       -1.91263154642795       -0.18322042521690
