 xtb: 6.7.1 (edcfbbe)
          04112510353D

 18 17  0     0  0            999 V2000
   -1.9601   -0.4557   -0.7274 C   0  0  0  0  0  0  0  0  0  0  0  0
   -1.5193    0.5901    0.2890 C   0  0  0  0  0  0  0  0  0  0  0  0
   -0.2349    0.1878    1.0250 C   0  0  0  0  0  0  0  0  0  0  0  0
    0.9443    0.0510    0.0942 C   0  0  0  0  0  0  0  0  0  0  0  0
    1.4949    1.1055   -0.4867 C   0  0  0  0  0  0  0  0  0  0  0  0
    1.4522   -1.3406   -0.1259 C   0  0  0  0  0  0  0  0  0  0  0  0
   -2.8959   -0.1586   -1.1951 H   0  0  0  0  0  0  0  0  0  0  0  0
   -2.1095   -1.4191   -0.2444 H   0  0  0  0  0  0  0  0  0  0  0  0
   -1.2095   -0.5681   -1.5061 H   0  0  0  0  0  0  0  0  0  0  0  0
   -1.3565    1.5414   -0.2211 H   0  0  0  0  0  0  0  0  0  0  0  0
   -2.3130    0.7361    1.0250 H   0  0  0  0  0  0  0  0  0  0  0  0
   -0.0153    0.9511    1.7751 H   0  0  0  0  0  0  0  0  0  0  0  0
   -0.4042   -0.7571    1.5437 H   0  0  0  0  0  0  0  0  0  0  0  0
    2.3293    1.0154   -1.1618 H   0  0  0  0  0  0  0  0  0  0  0  0
    1.1337    2.1051   -0.3108 H   0  0  0  0  0  0  0  0  0  0  0  0
    1.8233   -1.7505    0.8131 H   0  0  0  0  0  0  0  0  0  0  0  0
    0.6487   -1.9873   -0.4742 H   0  0  0  0  0  0  0  0  0  0  0  0
    2.2584   -1.3537   -0.8547 H   0  0  0  0  0  0  0  0  0  0  0  0
  1  2  1  0  0  0  0
  2  3  1  0  0  0  0
  3  4  1  0  0  0  0
  4  5  2  0  0  0  0
  4  6  1  0  0  0  0
  1  7  1  0  0  0  0
  1  8  1  0  0  0  0
  1  9  1  0  0  0  0
  2 10  1  0  0  0  0
  2 11  1  0  0  0  0
  3 12  1  0  0  0  0
  3 13  1  0  0  0  0
  5 14  1  0  0  0  0
  5 15  1  0  0  0  0
  6 16  1  0  0  0  0
  6 17  1  0  0  0  0
  6 18  1  0  0  0  0
M  END
