 xtb: 6.7.1 (edcfbbe)
          04112511533D

 17 16  0     0  0            999 V2000
    1.8114   -0.6647   -0.5300 C   0  0  0  0  0  0  0  0  0  0  0  0
    1.3856    0.5591    0.2734 C   0  0  0  0  0  0  0  0  0  0  0  0
   -0.0345    0.4312    0.8279 C   0  0  0  0  0  0  0  0  0  0  0  0
   -1.1227    0.5012   -0.2576 C   0  0  0  0  0  0  0  0  0  0  0  0
   -2.0259   -0.7274   -0.2597 C   0  0  0  0  0  0  0  0  0  0  0  0
    2.8226   -0.5374   -0.9094 H   0  0  0  0  0  0  0  0  0  0  0  0
    1.1479   -0.8256   -1.3759 H   0  0  0  0  0  0  0  0  0  0  0  0
    1.7888   -1.5539    0.0963 H   0  0  0  0  0  0  0  0  0  0  0  0
    2.0788    0.6919    1.1074 H   0  0  0  0  0  0  0  0  0  0  0  0
    1.4499    1.4512   -0.3537 H   0  0  0  0  0  0  0  0  0  0  0  0
   -0.1949    1.2255    1.5592 H   0  0  0  0  0  0  0  0  0  0  0  0
   -0.1130   -0.5184    1.3611 H   0  0  0  0  0  0  0  0  0  0  0  0
   -1.7374    1.3908   -0.1079 H   0  0  0  0  0  0  0  0  0  0  0  0
   -0.6565    0.5980   -1.2396 H   0  0  0  0  0  0  0  0  0  0  0  0
   -2.7811   -0.6450   -1.0383 H   0  0  0  0  0  0  0  0  0  0  0  0
   -2.5314   -0.8306    0.6980 H   0  0  0  0  0  0  0  0  0  0  0  0
   -1.4434   -1.6281   -0.4401 H   0  0  0  0  0  0  0  0  0  0  0  0
  1  2  1  0  0  0  0
  2  3  1  0  0  0  0
  3  4  1  0  0  0  0
  4  5  1  0  0  0  0
  1  6  1  0  0  0  0
  1  7  1  0  0  0  0
  1  8  1  0  0  0  0
  2  9  1  0  0  0  0
  2 10  1  0  0  0  0
  3 11  1  0  0  0  0
  3 12  1  0  0  0  0
  4 13  1  0  0  0  0
  4 14  1  0  0  0  0
  5 15  1  0  0  0  0
  5 16  1  0  0  0  0
  5 17  1  0  0  0  0
M  END
