  15
 
 C          0.0405606489       -1.2078566706        0.0000386187
 C          1.4180994008       -1.2019658807        0.0001639288
 C          2.1143395867        0.0080050306        0.0000929425
 C          1.4106654366        1.2160034916       -0.0000822184
 C          0.0354800120        1.2120426187       -0.0001956286
 C         -0.6498511039       -0.0005706126       -0.0001510622
 N         -2.0840178188       -0.0060769708       -0.0003319347
 O         -2.6450788369       -1.0831810522       -0.0005594815
 O         -2.6539152216        1.0658139516       -0.0001023243
 O          3.4593539519        0.0611500244        0.0002398966
 H         -0.5156266055       -2.1325868658        0.0000486869
 H          1.9642997514       -2.1351130093        0.0003254684
 H          1.9691181899        2.1376929459       -0.0001258438
 H         -0.5270088392        2.1328217408       -0.0003697338
 H          3.8389223731       -0.8271877807        0.0003720497
          15
        -30.41631469
 C          0.0328834628       -1.2086186289        0.0000679083
 C          1.4105483163       -1.2062977608        0.0000194013
 C          2.1096683672        0.0019083321       -0.0000373865
 C          1.4090908815        1.2117677129        0.0000064500
 C          0.0339129714        1.2113482814        0.0000322769
 C         -0.6543221865        0.0003719822        0.0000670412
 N         -2.0886474837       -0.0015008638       -0.0000016849
 O         -2.6523609111       -1.0772098659       -0.0001029198
 O         -2.6558253172        1.0718562194        0.0000353319
 O          3.4548506066        0.0520104989       -0.0000669663
 H         -0.5254994405       -2.1320273243        0.0000830999
 H          1.9541939064       -2.1408888713        0.0001059911
 H          1.9701553093        2.1318367962       -0.0001843187
 H         -0.5262345445        2.1335259657       -0.0001884598
 H          3.8325889604       -0.8371075448        0.0004876659
