35
CONF2
C -0.3875011655 -2.6244038617 -0.2510539537
C 0.4577437067 -1.4071181387 -0.0374530792
C 1.8425938758 -1.3950641893 -0.2806127737
N 2.6005642575 -0.3108885579 -0.0839540512
C 1.9877218801 0.8004796304 0.3739065879
N 0.6583120958 0.9124205134 0.5891681980
C -0.0450125981 -0.1825093420 0.3790848062
O -1.4023748988 -0.0533186867 0.6834744158
C -2.2749205240 -0.0969712680 -0.3918035643
O -1.8771467165 -0.0421613708 -1.5516206725
N -3.5548608772 -0.2035787379 0.0113987431
C -4.6045748498 0.0410222033 -0.9789212596
C -3.9371611542 -0.0321314105 1.4165826552
N 2.7694551620 1.8877581906 0.6686598157
C 4.1224365974 1.9415665403 0.1116772818
C 2.1186314470 3.1906166923 0.8171850499
C 2.5260116381 -2.6273616494 -0.7800711533
H 0.1110649088 -3.5177205521 0.1359609559
H -1.3516553780 -2.5364428848 0.2543316238
H -0.5814726754 -2.7952035138 -1.3168963516
H -5.4984830235 -0.5141174625 -0.6863224269
H -4.2805317310 -0.3050219329 -1.9601246243
H -4.8528365178 1.1083782600 -1.0372958774
H -3.9037752031 1.0223743213 1.7163792008
H -3.2848375472 -0.6133384405 2.0682713552
H -4.9586254474 -0.3981610215 1.5352895301
H 4.1108844501 2.0798179152 -0.9790213896
H 4.6734284283 1.0300759805 0.3414620511
H 4.6465994567 2.7852143690 0.5647631925
H 1.3008829587 3.1362528353 1.5356057346
H 1.7228674596 3.5628360318 -0.1387278057
H 2.8574533556 3.9026396020 1.1894485738
H 2.4850822731 -3.4177410682 -0.0213283377
H 2.0224867117 -3.0187325580 -1.6702378184
H 3.5702881434 -2.4208652579 -1.0162208110
35
CONF4
C -0.4032139197 -2.6047983666 -0.2926350309
C 0.4505238491 -1.3945973875 -0.0722503517
C 1.8325609731 -1.3859293778 -0.3308691222
N 2.5990639760 -0.3097816243 -0.1237713854
C 1.9977668708 0.7969386068 0.3601538707
N 0.6712868434 0.9130717221 0.5911096591
C -0.0409024517 -0.1740017792 0.3692807675
O -1.3938482232 -0.0411026771 0.6895052559
C -2.2800194123 -0.0684080427 -0.3754691910
O -1.8963305778 0.0024734956 -1.5391479765
N -3.5540517732 -0.1791419901 0.0439556795
C -4.6232996057 0.0786856835 -0.9212071761
C -3.9163853905 -0.0499323713 1.4585677109
N 2.7891005440 1.8743698585 0.6633531745
C 2.1480698452 3.1777349427 0.8454055286
C 4.1346106167 1.9303496946 0.0883880287
C 2.5036473930 -2.6130261025 -0.8594045087
H -0.6131463195 -2.7595917117 -1.3578572634
H 0.0967278050 -3.5056836080 0.0746313923
H -1.3595212794 -2.5202110686 0.2280106687
H -4.9155482027 1.1362117805 -0.9101386629
H -5.4912430762 -0.5298094631 -0.6570523377
H -4.2944827161 -0.1913411727 -1.9241720201
H -3.2509356011 -0.6446792336 2.0838253849
H -4.9336190079 -0.4259371497 1.5816726871
H -3.8849951523 0.9957488025 1.7869199246
H 2.8964063593 3.8781182783 1.2203056623
H 1.3405871452 3.1142379496 1.5746481128
H 1.7407137829 3.5702773438 -0.0971931507
H 4.1085706425 2.0797470049 -1.0003633915
H 4.6861149721 1.0151690734 0.3012964735
H 4.6669158787 2.7676438730 0.5430244679
H 3.5448972027 -2.4062896770 -1.1083766360
H 2.4716759274 -3.4152057640 -0.1126297135
H 1.9849230281 -2.9883563329 -1.7477097390
35
CONF3
C -0.3865067882 -2.6190254166 -0.2524061847
C 0.4579654350 -1.4007003090 -0.0416584005
C 1.8429469837 -1.3881662057 -0.2839655703
N 2.6006950192 -0.3040725306 -0.0860256860
C 1.9872276395 0.8069229805 0.3724140817
N 0.6573957467 0.9190373712 0.5850301750
C -0.0455744721 -0.1758981551 0.3733210420
O -1.4033014214 -0.0457515737 0.6746856352
C -2.2753291443 -0.0926958144 -0.4008669665
O -1.8772802674 -0.0389200753 -1.5604784051
N -3.5549094721 -0.2044760726 0.0031053129
C -4.6078423034 0.0426250270 -0.9834235247
C -3.9354958252 -0.0387280124 1.4094035940
N 2.7687071285 1.8933634450 0.6693062517
C 4.1224693045 1.9473172045 0.1141956847
C 2.1186775941 3.1959305959 0.8227259411
C 2.5273516846 -2.6198351802 -0.7836490845
H 0.1148559558 -3.5113632812 0.1332572668
H -1.3486372971 -2.5322445753 0.2570623699
H -0.5846755993 -2.7908675344 -1.3172804786
H -4.8714074583 1.1072216983 -1.0202460325
H -5.4939003647 -0.5310928164 -0.7026436599
H -4.2777529157 -0.2787798982 -1.9708297345
H -4.9555583540 -0.4084440277 1.5288284861
H -3.9045995499 1.0149183200 1.7122242693
H -3.2802807226 -0.6198175891 2.0581051239
H 4.6744364038 1.0373727841 0.3478699693
H 4.6446463907 2.7931878573 0.5652743424
H 4.1125895520 2.0818182767 -0.9769442287
H 2.8575876053 3.9059211538 1.1986933369
H 1.3002507112 3.1389663075 1.5402221655
H 1.7239772137 3.5723980260 -0.1319818423
H 3.5716404612 -2.4124464966 -1.0188569722
H 2.4864500395 -3.4111416890 -0.0259081551
H 2.0247448012 -3.0104857789 -1.6746441744
35
CONF5
C -0.3948734649 -2.6122200801 -0.2781210057
C 0.4555226693 -1.3983996201 -0.0647814864
C 1.8362031457 -1.3836459077 -0.3303401059
N 2.5985502485 -0.3034203141 -0.1283169617
C 1.9939627308 0.8010869658 0.3571774058
N 0.6671636374 0.9127441934 0.5891186812
C -0.0401670324 -0.1782924550 0.3727425899
O -1.3941131163 -0.0508369310 0.6923700420
C -2.2764760801 -0.0727743805 -0.3757204048
O -1.8882976558 0.0026090521 -1.5376258867
N -3.5522808979 -0.1857006209 0.0384416840
C -4.6180600882 0.0878135867 -0.9265887372
C -3.9191557781 -0.0635084448 1.4524941170
N 2.7814820726 1.8810938010 0.6596796012
C 2.1372398650 3.1829379585 0.8408796038
C 4.1300309180 1.9382052170 0.0925140709
C 2.5098027729 -2.6076486949 -0.8626398486
H 0.1116524831 -3.5111412328 0.0848753337
H -1.3471291131 -2.5309176539 0.2505742398
H -0.6133601724 -2.7680298435 -1.3415129702
H -5.4851202551 -0.5299697001 -0.6811132214
H -4.2827051046 -0.1579145002 -1.9335326249
H -4.9148031116 1.1437606457 -0.8930032056
H -3.8872567865 0.9805293087 1.7872220416
H -3.2569395842 -0.6632486630 2.0768428704
H -4.9378130643 -0.4385396626 1.5698077372
H 2.8827355515 3.8849036079 1.2187791946
H 1.3274512996 3.1172400313 1.5673712554
H 1.7320116094 3.5756264145 -0.1027829235
H 4.6566815315 2.7804784381 0.5449988812
H 4.1109039278 2.0806097174 -0.9974437440
H 4.6835853141 1.0262643649 0.3148847010
H 3.5514514461 -2.3990809042 -1.1083446389
H 2.4760958478 -3.4138677093 -0.1204732486
H 1.9933202097 -2.9784533539 -1.7542728883
35
CONF9
C -0.4122183784 -2.5503279637 0.0968607004
C 0.4490073421 -1.3372633488 -0.0729687885
C 1.8332468513 -1.3525740614 0.1752472979
N 2.6044866122 -0.2696038534 0.0302226764
C 2.0065478647 0.8688946298 -0.3779733661
N 0.6817731876 1.0024759866 -0.6065058095
C -0.0346816969 -0.0923972604 -0.4481218748
O -1.3876491038 0.0576369440 -0.7624627357
C -2.2594324613 0.0651643858 0.3133864071
O -1.8586630286 0.0671311529 1.4731151430
N -3.5435810573 0.1221097136 -0.0894047946
C -4.5773347705 -0.0763741689 0.9286353358
C -3.9293091147 -0.1822071192 -1.4719581950
N 2.8003065517 1.9645284517 -0.6038932110
C 4.1427106461 1.9783655898 -0.0182383920
C 2.1572917319 3.2779658868 -0.6821194617
C 2.4982362554 -2.6132283503 0.6251394881
H -0.5419340898 -2.8005058073 1.1566292249
H -1.4039384647 -2.4027655083 -0.3363366877
H 0.0392915757 -3.4212181073 -0.3886108979
H -5.5001249437 0.3956487686 0.5851406799
H -4.2725008414 0.3881486525 1.8662987740
H -4.7660821475 -1.1435496246 1.1009710998
H -4.9576178114 0.1539160597 -1.6177247849
H -3.8779153519 -1.2590286469 -1.6747830122
H -3.2914731756 0.3486336175 -2.1783826045
H 4.1103869782 2.0500557691 1.0782794895
H 4.6781295069 2.8455071960 -0.4095236830
H 4.6949113096 1.0800316427 -0.2923758885
H 1.7424678667 3.5896321283 0.2869587644
H 1.3550709483 3.2740392476 -1.4195083469
H 2.9063367870 4.0086408197 -0.9922564492
H 2.4210326303 -3.3833852606 -0.1512055068
H 3.5517334618 -2.4375576126 0.8446894805
H 2.0044223491 -3.0152197974 1.5163990977
35
CONF8
C -0.4785454652 -2.5248187188 -0.2681874727
C 0.4110645511 -1.3406212031 -0.0481636270
C 1.7939998455 -1.3765613403 -0.3017040351
N 2.5919323483 -0.3218211891 -0.1034711584
C 2.0233135339 0.8075669186 0.3673747265
N 0.7009006565 0.9645422691 0.5967399434
C -0.0426594996 -0.1029994539 0.3844457620
O -1.3916587734 0.0675085788 0.7055769716
C -2.2691871526 0.1196762576 -0.3646600688
O -1.8748856179 0.1470613383 -1.5265178625
N -3.5483644375 0.1865076097 0.0503300784
C -4.6025102874 0.0335586572 -0.9535364460
C -3.9259315106 -0.1204201619 1.4341622091
N 2.8461742554 1.8643497309 0.6619113674
C 2.2432497996 3.1866695185 0.8377852722
C 4.1887831769 1.8833972835 0.0774584330
C 2.4279390018 -2.6295173016 -0.8141960302
H -1.4557950031 -2.3848820854 0.1991608283
H -0.6406205810 -2.7085514121 -1.3370729176
H -0.0324733168 -3.4310459012 0.1525701571
H -4.8776938726 -1.0213526820 -1.0782131754
H -4.2671656952 0.4308741006 -1.9109450353
H -5.4832124833 0.5916637314 -0.6277410525
H -3.8717920274 -1.1972354636 1.6354620071
H -4.9544358670 0.2130336371 1.5845153663
H -3.2865227209 0.4110708104 2.1389017221
H 3.0074623119 3.8631491336 1.2251831543
H 1.4237786750 3.1464965023 1.5549186841
H 1.8616800343 3.5938735305 -0.1096557780
H 4.7504220869 2.6999729479 0.5353441667
H 4.1588847414 2.0440007713 -1.0098018890
H 4.7129160884 0.9495590557 0.2774869084
H 2.3525815151 -3.4269424116 -0.0654656287
H 1.9100974091 -2.9890501758 -1.7096836236
H 3.4802370611 -2.4634218300 -1.0466348899
35
CONF7
C -0.4765848808 -2.5289445012 -0.2638487629
C 0.4121768590 -1.3435597554 -0.0465931686
C 1.7946720677 -1.3776591207 -0.3027122516
N 2.5917251366 -0.3219461551 -0.1059795636
C 2.0222207836 0.8069725824 0.3655517194
N 0.6998062011 0.9625892185 0.5955174987
C -0.0428158571 -0.1059658154 0.3847829561
O -1.3917055178 0.0637685007 0.7053718979
C -2.2687184689 0.1165557248 -0.3655914157
O -1.8736310020 0.1427945660 -1.5271550321
N -3.5475672961 0.1852452278 0.0493934699
C -4.6030156839 0.0370561234 -0.9535886750
C -3.9248570578 -0.1181022513 1.4341240101
N 2.8438083735 1.8644816586 0.6596372959
C 2.2405768751 3.1861844766 0.8374299878
C 4.1879775921 1.8838504400 0.0794206524
C 2.4287292345 -2.6294623126 -0.8179819863
H -0.6408208223 -2.7139714630 -1.3321686248
H -0.0287959493 -3.4343244682 0.1569384407
H -1.4529630787 -2.3893270905 0.2054871651
H -5.4787087133 0.6048742590 -0.6308801656
H -4.8876642325 -1.0159915284 -1.0726850971
H -4.2636972663 0.4262758641 -1.9129291093
H -3.8650497847 -1.1937387989 1.6399579837
H -4.9553268874 0.2102910939 1.5819239197
H -3.2890972580 0.4198994482 2.1373588962
H 1.8619271641 3.5949385969 -0.1105591036
H 3.0036414836 3.8618988591 1.2283748330
H 1.4189055635 3.1443428612 1.5518861454
H 4.7483423484 2.6998353105 0.5399220290
H 4.1617097721 2.0456512533 -1.0077667322
H 4.7113142748 0.9496971402 0.2800801631
H 3.4807847243 -2.4625973377 -1.0509266223
H 2.3538859959 -3.4288238358 -0.0713414042
H 1.9102521161 -2.9867192922 -1.7140526898
35
CONF6
C -0.4842357406 -2.5142141091 -0.2499382288
C 0.4082963334 -1.3306779610 -0.0374715094
C 1.7905418304 -1.3696867190 -0.2937378771
N 2.5907290837 -0.3156158924 -0.1000284855
C 2.0244942758 0.8164295492 0.3681150484
N 0.7025030324 0.9767341433 0.5973412824
C -0.0431240449 -0.0901438581 0.3894957746
O -1.3916604542 0.0839721743 0.7073217625
C -2.2681847097 0.1254902986 -0.3643541298
O -1.8722904821 0.1596692196 -1.5254235791
N -3.5488609916 0.1760896778 0.0479014660
C -4.5962468426 0.0199283837 -0.9624392612
C -3.9265408939 -0.1481725547 1.4280033955
N 2.8495529226 1.8721799931 0.6581374456
C 2.2502967179 3.1955259817 0.8341927142
C 4.1931235359 1.8852440642 0.0767969994
C 2.4213394020 -2.6244244420 -0.8063953072
H -0.6575575687 -2.6976771907 -1.3170799229
H -0.0349480734 -3.4209499159 0.1662594638
H -1.4564248949 -2.3736664547 0.2274330722
H -4.2741209720 0.4598199080 -1.9055218379
H -5.4945954144 0.5378180899 -0.6199920750
H -4.8363880633 -1.0385318571 -1.1228562159
H -4.9570383408 0.1774928479 1.5812494925
H -3.2908026510 0.3791858565 2.1388813062
H -3.8660163666 -1.2267326348 1.6171676567
H 1.8655189848 3.6005685891 -0.1128654036
H 3.0173267148 3.8716029061 1.2162237662
H 1.4338759210 3.1588118868 1.5548178946
H 4.7557824670 2.7029942123 0.5315308342
H 4.1658755237 2.0400740748 -1.0115272142
H 4.7149230712 0.9511721090 0.2823605256
H 3.4734215372 -2.4598914272 -1.0413517832
H 2.3465700047 -3.4213867112 -0.0570229339
H 1.9010386595 -2.9835526238 -1.7006939467
35
CONF1
C -0.3866418749 -2.5650077762 -0.0469989493
C 0.4538080479 -1.3271921825 0.0079014222
C 1.8378896119 -1.3422974104 -0.2429290095
N 2.5916187742 -0.2386252445 -0.1998455114
C 1.9723763484 0.9262016606 0.0849233382
N 0.6542329884 1.0502047775 0.3554651409
C -0.0441037511 -0.0660074714 0.3000114195
O -1.3874562634 0.0791391420 0.6584276989
C -2.2982985602 0.0235606928 -0.3812900493
O -1.9419394712 -0.0411579006 -1.5543334811
N -3.5667492916 0.0996876879 0.0656966922
C -4.6376767400 -0.1637893002 -0.8976603862
C -3.8966142751 -0.1191222726 1.4783191916
N 2.7228211888 2.0728428953 0.0621612115
C 4.1803574454 1.9503049286 0.1239819386
C 2.1797917708 3.2719246530 0.7029479311
C 2.5246832738 -2.6300873204 -0.5644582493
H 0.0640922857 -3.3715533851 0.5402435583
H -1.3905699588 -2.3877851811 0.3440835413
H -0.4855413469 -2.9302884723 -1.0760124278
H -5.5508465019 0.3196152296 -0.5444895254
H -4.8226415057 -1.2403962287 -1.0027339268
H -4.3752984407 0.2500133509 -1.8712726522
H -3.2400559938 0.4630507581 2.1245910130
H -3.8231169777 -1.1799274878 1.7479031703
H -4.9231112658 0.2142644174 1.6411390610
H 4.5465244525 1.2779267955 -0.6515620602
H 4.5190017134 1.5776569421 1.1013182629
H 4.6141740753 2.9380940878 -0.0422896245
H 2.1337242991 3.1656668605 1.7963850348
H 1.1791555406 3.4911805736 0.3309359666
H 2.8297417018 4.1148397322 0.4610535364
H 3.5835331146 -2.4645118991 -0.7651890126
H 2.4258565363 -3.3368492574 0.2674684107
H 2.0623550709 -3.1059860569 -1.4363582982
