 xtb: 6.7.1 (edcfbbe)
          04112511193D

 20 19  0     0  0            999 V2000
   -2.5500   -0.1784   -0.3145 C   0  0  0  0  0  0  0  0  0  0  0  0
   -1.2528   -0.6535    0.3316 C   0  0  0  0  0  0  0  0  0  0  0  0
   -0.0001    0.0560   -0.2001 C   0  0  0  0  0  0  0  0  0  0  0  0
   -0.0002    1.5345    0.1817 C   0  0  0  0  0  0  0  0  0  0  0  0
    1.2530   -0.6532    0.3313 C   0  0  0  0  0  0  0  0  0  0  0  0
    2.5500   -0.1774   -0.3144 C   0  0  0  0  0  0  0  0  0  0  0  0
   -2.7640    0.8554   -0.0578 H   0  0  0  0  0  0  0  0  0  0  0  0
   -2.4872   -0.2599   -1.3974 H   0  0  0  0  0  0  0  0  0  0  0  0
   -3.3824   -0.7890    0.0275 H   0  0  0  0  0  0  0  0  0  0  0  0
   -1.1483   -1.7258    0.1479 H   0  0  0  0  0  0  0  0  0  0  0  0
   -1.3118   -0.5101    1.4130 H   0  0  0  0  0  0  0  0  0  0  0  0
   -0.0001   -0.0224   -1.2938 H   0  0  0  0  0  0  0  0  0  0  0  0
    0.8770    2.0359   -0.2173 H   0  0  0  0  0  0  0  0  0  0  0  0
    0.0001    1.6442    1.2643 H   0  0  0  0  0  0  0  0  0  0  0  0
   -0.8778    2.0356   -0.2167 H   0  0  0  0  0  0  0  0  0  0  0  0
    1.3118   -0.5102    1.4128 H   0  0  0  0  0  0  0  0  0  0  0  0
    1.1489   -1.7255    0.1472 H   0  0  0  0  0  0  0  0  0  0  0  0
    2.7637    0.8564   -0.0571 H   0  0  0  0  0  0  0  0  0  0  0  0
    2.4872   -0.2581   -1.3974 H   0  0  0  0  0  0  0  0  0  0  0  0
    3.3825   -0.7880    0.0272 H   0  0  0  0  0  0  0  0  0  0  0  0
  1  2  1  0  0  0  0
  2  3  1  0  0  0  0
  3  4  1  0  0  0  0
  3  5  1  0  0  0  0
  5  6  1  0  0  0  0
  1  7  1  0  0  0  0
  1  8  1  0  0  0  0
  1  9  1  0  0  0  0
  2 10  1  0  0  0  0
  2 11  1  0  0  0  0
  3 12  1  0  0  0  0
  4 13  1  0  0  0  0
  4 14  1  0  0  0  0
  4 15  1  0  0  0  0
  5 16  1  0  0  0  0
  5 17  1  0  0  0  0
  6 18  1  0  0  0  0
  6 19  1  0  0  0  0
  6 20  1  0  0  0  0
M  END
