 xtb: 6.7.1 (edcfbbe)
          04112512243D

 23 22  0     0  0            999 V2000
    2.7493    0.4951   -0.3683 C   0  0  0  0  0  0  0  0  0  0  0  0
    1.2992    0.8984   -0.1219 C   0  0  0  0  0  0  0  0  0  0  0  0
    0.3176   -0.2772   -0.2301 C   0  0  0  0  0  0  0  0  0  0  0  0
    0.5481   -0.8119   -1.1600 H   0  0  0  0  0  0  0  0  0  0  0  0
    0.5060   -1.2504    0.9325 C   0  0  0  0  0  0  0  0  0  0  0  0
   -1.1359    0.2273   -0.3615 C   0  0  0  0  0  0  0  0  0  0  0  0
   -2.0716   -0.8769   -0.8551 C   0  0  0  0  0  0  0  0  0  0  0  0
   -1.6860    0.8322    0.9289 C   0  0  0  0  0  0  0  0  0  0  0  0
    2.8508    0.0109   -1.3372 H   0  0  0  0  0  0  0  0  0  0  0  0
    3.3895    1.3742   -0.3562 H   0  0  0  0  0  0  0  0  0  0  0  0
    3.1022   -0.1897    0.3979 H   0  0  0  0  0  0  0  0  0  0  0  0
    1.0213    1.6576   -0.8575 H   0  0  0  0  0  0  0  0  0  0  0  0
    1.2200    1.3522    0.8677 H   0  0  0  0  0  0  0  0  0  0  0  0
    1.4859   -1.7171    0.8775 H   0  0  0  0  0  0  0  0  0  0  0  0
    0.4283   -0.7333    1.8855 H   0  0  0  0  0  0  0  0  0  0  0  0
   -0.2388   -2.0407    0.9020 H   0  0  0  0  0  0  0  0  0  0  0  0
   -1.1290    1.0147   -1.1257 H   0  0  0  0  0  0  0  0  0  0  0  0
   -3.0608   -0.4687   -1.0494 H   0  0  0  0  0  0  0  0  0  0  0  0
   -2.1734   -1.6644   -0.1127 H   0  0  0  0  0  0  0  0  0  0  0  0
   -1.6960   -1.3171   -1.7761 H   0  0  0  0  0  0  0  0  0  0  0  0
   -2.6673    1.2638    0.7441 H   0  0  0  0  0  0  0  0  0  0  0  0
   -1.0351    1.6189    1.3004 H   0  0  0  0  0  0  0  0  0  0  0  0
   -1.7915    0.0718    1.6978 H   0  0  0  0  0  0  0  0  0  0  0  0
  1  2  1  0  0  0  0
  2  3  1  0  0  0  0
  3  4  1  0  0  0  0
  3  5  1  0  0  0  0
  3  6  1  0  0  0  0
  6  7  1  0  0  0  0
  6  8  1  0  0  0  0
  1  9  1  0  0  0  0
  1 10  1  0  0  0  0
  1 11  1  0  0  0  0
  2 12  1  0  0  0  0
  2 13  1  0  0  0  0
  5 14  1  0  0  0  0
  5 15  1  0  0  0  0
  5 16  1  0  0  0  0
  6 17  1  0  0  0  0
  7 18  1  0  0  0  0
  7 19  1  0  0  0  0
  7 20  1  0  0  0  0
  8 21  1  0  0  0  0
  8 22  1  0  0  0  0
  8 23  1  0  0  0  0
M  END
