 16

C      1.986000    -2.783000    -2.237000
S      1.940000    -1.008000    -1.894000
C      1.885000    -1.036000    -0.112000
C      2.921000    -1.631000     0.608000
C      2.878000    -1.652000     2.002000
C      1.800000    -1.079000     2.676000
C      0.764000    -0.484000     1.955000
C      0.807000    -0.463000     0.561000
H      2.023000    -2.952000    -3.316000
H      1.091000    -3.262000    -1.832000
H      2.870000    -3.228000    -1.775000
H      3.771000    -2.082000     0.101000
H      3.685000    -2.113000     2.564000
H      1.768000    -1.093000     3.761000
H     -0.075000    -0.036000     2.479000
H     -0.010000     0.006000     0.017000
