  16
 
 C          1.9860000000       -2.7830000000       -2.2370000000
 S          1.9400000000       -1.0080000000       -1.8940000000
 C          1.8850000000       -1.0360000000       -0.1120000000
 C          2.9210000000       -1.6310000000        0.6080000000
 C          2.8780000000       -1.6520000000        2.0020000000
 C          1.8000000000       -1.0790000000        2.6760000000
 C          0.7640000000       -0.4840000000        1.9550000000
 C          0.8070000000       -0.4630000000        0.5610000000
 H          2.0230000000       -2.9520000000       -3.3160000000
 H          1.0910000000       -3.2620000000       -1.8320000000
 H          2.8700000000       -3.2280000000       -1.7750000000
 H          3.7710000000       -2.0820000000        0.1010000000
 H          3.6850000000       -2.1130000000        2.5640000000
 H          1.7680000000       -1.0930000000        3.7610000000
 H         -0.0750000000       -0.0360000000        2.4790000000
 H         -0.0100000000        0.0060000000        0.0170000000
