 xtb: 6.7.1 (edcfbbe)
          04112511523D

 18 17  0     0  0            999 V2000
    1.6345   -1.2161   -0.6290 C   0  0  0  0  0  0  0  0  0  0  0  0
    1.0815   -0.2781    0.4431 C   0  0  0  0  0  0  0  0  0  0  0  0
    1.2795    1.1795    0.0301 C   0  0  0  0  0  0  0  0  0  0  0  0
   -0.3832   -0.6027    0.7786 C   0  0  0  0  0  0  0  0  0  0  0  0
   -1.4089   -0.2819   -0.3166 C   0  0  0  0  0  0  0  0  0  0  0  0
   -1.9918    1.0006   -0.1879 O   0  0  0  0  0  0  0  0  0  0  0  0
    2.6923   -1.0206   -0.7878 H   0  0  0  0  0  0  0  0  0  0  0  0
    1.1196   -1.0769   -1.5764 H   0  0  0  0  0  0  0  0  0  0  0  0
    1.5187   -2.2537   -0.3258 H   0  0  0  0  0  0  0  0  0  0  0  0
    1.6548   -0.4490    1.3620 H   0  0  0  0  0  0  0  0  0  0  0  0
    2.3405    1.3957   -0.0743 H   0  0  0  0  0  0  0  0  0  0  0  0
    0.8712    1.8509    0.7822 H   0  0  0  0  0  0  0  0  0  0  0  0
    0.8067    1.3777   -0.9291 H   0  0  0  0  0  0  0  0  0  0  0  0
   -0.6805   -0.0530    1.6749 H   0  0  0  0  0  0  0  0  0  0  0  0
   -0.4484   -1.6668    1.0106 H   0  0  0  0  0  0  0  0  0  0  0  0
   -0.9664   -0.3940   -1.3138 H   0  0  0  0  0  0  0  0  0  0  0  0
   -2.2533   -0.9715   -0.2440 H   0  0  0  0  0  0  0  0  0  0  0  0
   -1.2953    1.6689   -0.2452 H   0  0  0  0  0  0  0  0  0  0  0  0
  1  2  1  0  0  0  0
  2  3  1  0  0  0  0
  2  4  1  0  0  0  0
  4  5  1  0  0  0  0
  5  6  1  0  0  0  0
  1  7  1  0  0  0  0
  1  8  1  0  0  0  0
  1  9  1  0  0  0  0
  2 10  1  0  0  0  0
  3 11  1  0  0  0  0
  3 12  1  0  0  0  0
  3 13  1  0  0  0  0
  4 14  1  0  0  0  0
  4 15  1  0  0  0  0
  5 16  1  0  0  0  0
  5 17  1  0  0  0  0
  6 18  1  0  0  0  0
M  END
