  17
 
 C         -2.9071409473        0.0001764668        0.0172535249
 C         -1.4072538361        0.0001447828        0.0135613427
 C         -0.6929306862       -1.1911513073        0.0001615071
 C          0.6872939571       -1.1973884580       -0.0251701922
 C          1.4006728672        0.0001247018       -0.0413064533
 C          0.6873221531        1.1976473593       -0.0249100373
 C         -0.6929019102        1.1914320546        0.0004506676
 N          2.7813145372        0.0001223037       -0.1429978417
 H         -3.2851197941        0.0006541996       -1.0062777595
 H         -3.2939745910       -0.8850407702        0.5173592385
 H         -3.2939344365        0.8849532799        0.5181634287
 H         -1.2260681788       -2.1315345391        0.0139248590
 H          1.2259022570       -2.1348157772       -0.0332579660
 H          1.2259509693        2.1350655465       -0.0326946019
 H         -1.2260238906        2.1318229345        0.0144737971
 H          3.2432998779       -0.8454437692        0.1508913319
 H          3.2433058381        0.8455507084        0.1509344620
          17
        -22.48660475
 C         -2.9112077310       -0.0008689313       -0.0150989636
 C         -1.4114890845        0.0015170381        0.0069155067
 C         -0.6975967904       -1.1904702067        0.0073606312
 C          0.6826578980       -1.1975323238        0.0101043347
 C          1.3969097414       -0.0002188753        0.0093748665
 C          0.6841638568        1.1975552881        0.0100438031
 C         -0.6965704400        1.1921559455        0.0072414301
 N          2.7792495062       -0.0011725194       -0.0627107920
 H         -3.2725715019       -0.0794743134       -1.0415066457
 H         -3.3054621496       -0.8469705707        0.5440409506
 H         -3.3069468498        0.9179765866        0.4117473332
 H         -1.2319000894       -2.1302948655        0.0101043597
 H          1.2210331499       -2.1351298482        0.0127303039
 H          1.2232998797        2.1347024425        0.0130570446
 H         -1.2288959961        2.1331030491        0.0104827005
 H          3.2357219741        0.8439376215        0.2414883119
 H          3.2347869620       -0.8470331594        0.2410311444
