  17
 
 C          1.9310000000       -1.0140000000       -1.6030000000
 C          1.8850000000       -1.0360000000       -0.1120000000
 C          2.9210000000       -1.6310000000        0.6080000000
 C          2.8780000000       -1.6520000000        2.0020000000
 C          1.8000000000       -1.0790000000        2.6760000000
 C          0.7640000000       -0.4840000000        1.9550000000
 C          0.8070000000       -0.4630000000        0.5610000000
 N          1.7570000000       -1.0990000000        4.0850000000
 H          2.4380000000       -0.1080000000       -1.9490000000
 H          2.4630000000       -1.8880000000       -1.9910000000
 H          0.9200000000       -1.0370000000       -2.0250000000
 H          3.7650000000       -2.0790000000        0.0920000000
 H          3.6910000000       -2.1180000000        2.5540000000
 H         -0.0810000000       -0.0340000000        2.4690000000
 H         -0.0050000000        0.0020000000        0.0080000000
 H          2.4820000000       -1.5690000000        4.5890000000
 H          0.9560000000       -0.7270000000        4.5540000000
