18
 xtb: 6.7.1 (edcfbbe)
C            1.55979406921169       -1.18894418459130       -0.65173586137201
C            1.05552906595579       -0.25550883723581        0.45081800511035
C            1.28192229438395        1.20565712360944        0.05942372200585
C           -0.39787442979426       -0.56985365540632        0.84983575774547
C           -1.47335121393030       -0.36440034668039       -0.20403841190590
O           -1.80144296778937        1.04094655816831       -0.30189435575447
H            1.03776580365917       -1.00814050962945       -1.59816467084511
H            1.41552273954647       -2.24113367628620       -0.38199270154583
H            2.62832065371378       -1.02973994440279       -0.83332112148084
H            1.65848976396647       -0.45268971970916        1.34832048625525
H            0.89794121283690        1.89147562469109        0.82230234959034
H            0.78647258270095        1.44223645119833       -0.88786749619875
H            2.35191319407347        1.40520848349069       -0.06658275363533
H           -0.67366359564009        0.01965594518916        1.73460582776034
H           -0.44229970200637       -1.62341969263801        1.15387569172739
H           -1.14764624153636       -0.74143056720618       -1.18345634618382
H           -2.37311681871715       -0.92476418747306        0.08536357890938
H           -2.48280947926878        1.12717427811720       -0.98019550478292
