29
 xtb: 6.7.1 (edcfbbe)
C           -2.71896150291343       -0.79945687274651       -0.97041087401930
C           -1.98891864073810       -0.27507933224352        0.26648884771336
C           -2.96628095324832        0.43936028019320        1.19889009632382
C           -0.83048065011742        0.65665966947343       -0.11933027402646
C            0.34734934766823       -0.05385602705107       -0.81789446793330
C            1.70181850924562        0.00368474572834       -0.07709484217001
C            2.73129843834048       -0.78333128360146       -0.89675035989935
C            2.18269379738616        1.45309349594058        0.05933824873596
C            1.58094218533597       -0.63596755659616        1.31133468855142
H           -3.18888410755234        0.03061576362900       -1.51275048513618
H           -3.50667602298571       -1.50877960468027       -0.69388837842184
H           -2.03953360306153       -1.30918048027443       -1.66169697713890
H           -1.56106313241464       -1.13286881010512        0.80707278894262
H           -3.39030753682318        1.32444300331889        0.70817538641497
H           -3.79799819748251       -0.21480764122042        1.48305074206725
H           -2.46819410830622        0.77148042500978        2.11661475968273
H           -1.23161295916126        1.45412292287627       -0.75905733791623
H           -0.47680019705205        1.15493521123855        0.79053934748827
H            0.49807954764291        0.35695023956212       -1.82426248310965
H            0.09769818078450       -1.11428521905686       -0.95824664749591
H            3.71082469273599       -0.77529572585081       -0.40465217481622
H            2.42194660219150       -1.82821582587375       -1.01639458537596
H            2.85229685884589       -0.34910846102986       -1.89608928016564
H            3.16150126618687        1.48768029850779        0.55142894623766
H            2.28214208585687        1.92456472445621       -0.92545180476336
H            1.49087069016008        2.05694854843051        0.65599605011800
H            0.85655945125564       -0.10866705955493        1.94159639676913
H            2.54706123666208       -0.61340177302244        1.82858754851058
H            1.26400268874431       -1.68251391037910        1.23261190847000
