 xtb: 6.7.1 (edcfbbe)
          04072508503D

 19 19  0     0  0            999 V2000
   -2.5348    0.1378   -0.4898 C   0  0  0  0  0  0  0  0  0  0  0  0
   -2.0538   -1.1236   -0.1818 C   0  0  0  0  0  0  0  0  0  0  0  0
   -0.7742   -1.2734    0.3233 C   0  0  0  0  0  0  0  0  0  0  0  0
    0.0389   -0.1664    0.5328 C   0  0  0  0  0  0  0  0  0  0  0  0
   -0.4516    1.0944    0.2191 C   0  0  0  0  0  0  0  0  0  0  0  0
   -1.7293    1.2463   -0.2901 C   0  0  0  0  0  0  0  0  0  0  0  0
    1.4429   -0.3359    1.0399 C   0  0  0  0  0  0  0  0  0  0  0  0
    2.4304   -0.4639   -0.1259 C   0  0  0  0  0  0  0  0  0  0  0  0
    2.5177    0.7785   -0.7933 O   0  0  0  0  0  0  0  0  0  0  0  0
   -3.5330    0.2562   -0.8844 H   0  0  0  0  0  0  0  0  0  0  0  0
   -2.6767   -1.9924   -0.3360 H   0  0  0  0  0  0  0  0  0  0  0  0
   -0.4024   -2.2602    0.5607 H   0  0  0  0  0  0  0  0  0  0  0  0
    0.1803    1.9577    0.3659 H   0  0  0  0  0  0  0  0  0  0  0  0
   -2.0980    2.2326   -0.5308 H   0  0  0  0  0  0  0  0  0  0  0  0
    1.7339    0.5309    1.6344 H   0  0  0  0  0  0  0  0  0  0  0  0
    1.5181   -1.2339    1.6536 H   0  0  0  0  0  0  0  0  0  0  0  0
    3.4165   -0.7510    0.2655 H   0  0  0  0  0  0  0  0  0  0  0  0
    2.0811   -1.2455   -0.8138 H   0  0  0  0  0  0  0  0  0  0  0  0
    3.0881    0.6900   -1.5676 H   0  0  0  0  0  0  0  0  0  0  0  0
  1  2  4  0  0  0  0
  2  3  4  0  0  0  0
  3  4  4  0  0  0  0
  4  5  4  0  0  0  0
  1  6  4  0  0  0  0
  5  6  4  0  0  0  0
  4  7  1  0  0  0  0
  7  8  1  0  0  0  0
  8  9  1  0  0  0  0
  1 10  1  0  0  0  0
  2 11  1  0  0  0  0
  3 12  1  0  0  0  0
  5 13  1  0  0  0  0
  6 14  1  0  0  0  0
  7 15  1  0  0  0  0
  7 16  1  0  0  0  0
  8 17  1  0  0  0  0
  8 18  1  0  0  0  0
  9 19  1  0  0  0  0
M  END
