  17
 
 C          2.5169709052       -1.0349353595       -0.0014917121
 C          1.2028409863       -0.3191801836       -0.0141735172
 C         -0.0019245352       -1.0105960432       -0.0195724462
 C         -1.2062396507       -0.3184004281       -0.0141747217
 C         -1.1357118399        1.0715357041       -0.0032557893
 N         -0.0010360776        1.7466097132        0.0020079361
 C          1.1332116624        1.0708198279       -0.0032098189
 C         -2.5209264713       -1.0333887167       -0.0013820541
 H          2.8333821423       -1.2107812614        1.0273646269
 H          2.4382807592       -1.9985792041       -0.5000231129
 H          3.2841012672       -0.4409654757       -0.4928099041
 H         -0.0022871922       -2.0930625976       -0.0316258060
 H         -2.0370843305        1.6716018841       -0.0021508450
 H          2.0349164987        1.6703351555       -0.0022282591
 H         -2.8366394002       -1.2102673469        1.0275087547
 H         -3.2880496445       -0.4383544177       -0.4914411986
 H         -2.4431846009       -1.9965124247       -0.5011092741
          17
        -22.49333678
 C          2.5172951929       -1.0307338083        0.0052860378
 C          1.2046075763       -0.3123704831       -0.0084824675
 C          0.0003279669       -1.0049521287        0.0001745495
 C         -1.2042136114       -0.3131202084        0.0087101634
 C         -1.1343072740        1.0765683338        0.0098010841
 N         -0.0003461960        1.7525968799       -0.0000445843
 C          1.1340101787        1.0771308300       -0.0097707707
 C         -2.5172138980       -1.0308652446       -0.0055220122
 H          2.7800121603       -1.3043773792        1.0277086217
 H          2.4638118127       -1.9441060837       -0.5836097506
 H          3.3081790116       -0.3979001661       -0.3900028230
 H          0.0007120708       -2.0873327075        0.0004355442
 H         -2.0355118781        1.6767147161        0.0184944410
 H          2.0349166063        1.6777843042       -0.0186502926
 H         -3.3005190564       -0.4115347462        0.4247930972
 H         -2.7987272466       -1.2690843166       -1.0318541056
 H         -2.4540939191       -1.9636425754        0.5509621843
