 17

C      2.885000    -0.266000     3.652000
C      1.652000    -0.623000     2.900000
C      1.388000    -0.068000     1.652000
C      0.227000    -0.420000     0.973000
C     -0.632000    -1.322000     1.580000
N     -0.409000    -1.882000     2.791000
C      0.730000    -1.516000     3.421000
C     -0.085000     0.156000    -0.362000
H      3.695000    -0.954000     3.392000
H      3.201000     0.757000     3.421000
H      2.711000    -0.315000     4.732000
H      2.087000     0.636000     1.209000
H     -1.554000    -1.634000     1.098000
H      0.882000    -1.980000     4.390000
H      0.333000    -0.471000    -1.160000
H     -1.170000     0.239000    -0.521000
H      0.327000     1.170000    -0.469000
