  17
 
 C          2.8850000000       -0.2660000000        3.6520000000
 C          1.6520000000       -0.6230000000        2.9000000000
 C          1.3880000000       -0.0680000000        1.6520000000
 C          0.2270000000       -0.4200000000        0.9730000000
 C         -0.6320000000       -1.3220000000        1.5800000000
 N         -0.4090000000       -1.8820000000        2.7910000000
 C          0.7300000000       -1.5160000000        3.4210000000
 C         -0.0850000000        0.1560000000       -0.3620000000
 H          3.6950000000       -0.9540000000        3.3920000000
 H          3.2010000000        0.7570000000        3.4210000000
 H          2.7110000000       -0.3150000000        4.7320000000
 H          2.0870000000        0.6360000000        1.2090000000
 H         -1.5540000000       -1.6340000000        1.0980000000
 H          0.8820000000       -1.9800000000        4.3900000000
 H          0.3330000000       -0.4710000000       -1.1600000000
 H         -1.1700000000        0.2390000000       -0.5210000000
 H          0.3270000000        1.1700000000       -0.4690000000
