  14
 
 C         -3.1195225634        0.4409338399        0.0022967937
 C         -1.9285141333       -0.5097621159       -0.0003213230
 C         -0.6043363384        0.2542277620        0.0003637487
 C          0.5772803957       -0.7002572803       -0.0002622752
 Cl         2.1175351801        0.2011623218       -0.0001200796
 H         -4.0521141266       -0.1172631808       -0.0005130813
 H         -3.0999638407        1.0737845660        0.8861202275
 H         -3.0983218468        1.0798943101       -0.8771158463
 H         -1.9759443855       -1.1503085831       -0.8833524023
 H         -1.9746458832       -1.1539578986        0.8801434385
 H         -0.5517144962        0.8952154422       -0.8815561106
 H         -0.5517844912        0.8940339823        0.8831320805
 H          0.5810297950       -1.3279981203       -0.8914544597
 H          0.5813282185       -1.3288518845        0.8903141449
          14
        -17.70717382
 C         -2.8423419234       -0.4262570096       -0.1525786639
 C         -1.4345584317       -0.2762666732        0.4093387123
 C         -0.6541726744        0.8176838266       -0.3165010571
 C          0.7508991936        0.9968158200        0.2324256700
 Cl         1.7502354971       -0.4529284280       -0.0691223199
 H         -3.3974803619        0.5037356298       -0.0488108476
 H         -2.8062437071       -0.6875768692       -1.2077300136
 H         -3.3814159040       -1.2084804677        0.3758718172
 H         -0.9003413730       -1.2225718123        0.3101610089
 H         -1.4901734102       -0.0335157993        1.4731268285
 H         -0.5995522707        0.5818435428       -1.3811594787
 H         -1.1775441995        1.7717213220       -0.2096378549
 H          0.7392013011        1.1465902911        1.3121849829
 H          1.2633454040        1.8288060606       -0.2504791681
