 14

C     -0.117000     0.538000     0.946000
C      0.589000    -0.207000     2.067000
C      0.443000     0.521000     3.403000
C      1.154000    -0.233000     4.519000
Cl     0.973000     0.628000     6.064000
H     -0.007000     0.010000    -0.007000
H     -1.186000     0.626000     1.164000
H      0.290000     1.548000     0.828000
H      1.651000    -0.313000     1.815000
H      0.172000    -1.218000     2.146000
H      0.858000     1.533000     3.315000
H     -0.622000     0.628000     3.646000
H      2.225000    -0.326000     4.314000
H      0.735000    -1.236000     4.647000
