 xtb: 6.7.1 (edcfbbe)
          04112511223D

 15 14  0     0  0            999 V2000
    1.6500   -0.9713   -0.0479 C   0  0  0  0  0  0  0  0  0  0  0  0
    1.3529    0.5075    0.1687 C   0  0  0  0  0  0  0  0  0  0  0  0
   -0.0328    0.8929   -0.3604 C   0  0  0  0  0  0  0  0  0  0  0  0
   -1.1255    0.2151    0.4025 C   0  0  0  0  0  0  0  0  0  0  0  0
   -2.0469   -0.5637   -0.1326 C   0  0  0  0  0  0  0  0  0  0  0  0
    1.6278   -1.2115   -1.1086 H   0  0  0  0  0  0  0  0  0  0  0  0
    0.9067   -1.5851    0.4561 H   0  0  0  0  0  0  0  0  0  0  0  0
    2.6326   -1.2252    0.3424 H   0  0  0  0  0  0  0  0  0  0  0  0
    1.4072    0.7373    1.2351 H   0  0  0  0  0  0  0  0  0  0  0  0
    2.1086    1.1082   -0.3415 H   0  0  0  0  0  0  0  0  0  0  0  0
   -0.1057    0.6368   -1.4190 H   0  0  0  0  0  0  0  0  0  0  0  0
   -0.1565    1.9753   -0.2617 H   0  0  0  0  0  0  0  0  0  0  0  0
   -1.1219    0.3986    1.4699 H   0  0  0  0  0  0  0  0  0  0  0  0
   -2.8172   -1.0295    0.4583 H   0  0  0  0  0  0  0  0  0  0  0  0
   -2.0714   -0.7652   -1.1912 H   0  0  0  0  0  0  0  0  0  0  0  0
  1  2  1  0  0  0  0
  2  3  1  0  0  0  0
  3  4  1  0  0  0  0
  4  5  2  0  0  0  0
  1  6  1  0  0  0  0
  1  7  1  0  0  0  0
  1  8  1  0  0  0  0
  2  9  1  0  0  0  0
  2 10  1  0  0  0  0
  3 11  1  0  0  0  0
  3 12  1  0  0  0  0
  4 13  1  0  0  0  0
  5 14  1  0  0  0  0
  5 15  1  0  0  0  0
M  END
