 17

C      3.074000    -1.629000    -2.077000
O      1.938000    -1.022000    -1.474000
C      1.885000    -1.036000    -0.112000
C      2.921000    -1.631000     0.608000
C      2.878000    -1.652000     2.002000
C      1.800000    -1.079000     2.676000
C      0.764000    -0.484000     1.955000
C      0.807000    -0.463000     0.561000
O     -0.212000     0.119000    -0.131000
H      2.996000    -1.552000    -3.164000
H      3.128000    -2.680000    -1.779000
H      3.975000    -1.111000    -1.741000
H      3.764000    -2.080000     0.090000
H      3.686000    -2.114000     2.563000
H      1.766000    -1.097000     3.761000
H     -0.074000    -0.040000     2.485000
H     -0.046000     0.059000    -1.085000
