 xtb: 6.7.1 (edcfbbe)
          04112512143D

 21 20  0     0  0            999 V2000
    2.2553    0.5458   -0.8816 C   0  0  0  0  0  0  0  0  0  0  0  0
    1.0636   -0.1430   -0.2210 C   0  0  0  0  0  0  0  0  0  0  0  0
    0.6312   -0.8559   -0.9393 H   0  0  0  0  0  0  0  0  0  0  0  0
    0.0027    0.8841    0.2119 C   0  0  0  0  0  0  0  0  0  0  0  0
   -1.4591    0.4104    0.1700 C   0  0  0  0  0  0  0  0  0  0  0  0
   -1.9436    0.2051   -1.2648 C   0  0  0  0  0  0  0  0  0  0  0  0
   -1.6947   -0.8516    0.9986 C   0  0  0  0  0  0  0  0  0  0  0  0
    1.5821   -0.8682    0.8867 O   0  0  0  0  0  0  0  0  0  0  0  0
    2.6707    1.2874   -0.2043 H   0  0  0  0  0  0  0  0  0  0  0  0
    3.0250   -0.1904   -1.0984 H   0  0  0  0  0  0  0  0  0  0  0  0
    1.9488    1.0271   -1.8049 H   0  0  0  0  0  0  0  0  0  0  0  0
    0.2520    1.1997    1.2281 H   0  0  0  0  0  0  0  0  0  0  0  0
    0.0884    1.7611   -0.4315 H   0  0  0  0  0  0  0  0  0  0  0  0
   -2.0577    1.2170    0.6100 H   0  0  0  0  0  0  0  0  0  0  0  0
   -3.0007   -0.0499   -1.2701 H   0  0  0  0  0  0  0  0  0  0  0  0
   -1.3993   -0.6004   -1.7515 H   0  0  0  0  0  0  0  0  0  0  0  0
   -1.8064    1.1124   -1.8479 H   0  0  0  0  0  0  0  0  0  0  0  0
   -1.3418   -0.7135    2.0182 H   0  0  0  0  0  0  0  0  0  0  0  0
   -2.7581   -1.0772    1.0382 H   0  0  0  0  0  0  0  0  0  0  0  0
   -1.1919   -1.7075    0.5535 H   0  0  0  0  0  0  0  0  0  0  0  0
    0.8553   -1.3087    1.3457 H   0  0  0  0  0  0  0  0  0  0  0  0
  1  2  1  0  0  0  0
  2  3  1  0  0  0  0
  2  4  1  0  0  0  0
  4  5  1  0  0  0  0
  5  6  1  0  0  0  0
  5  7  1  0  0  0  0
  2  8  1  0  0  0  0
  1  9  1  0  0  0  0
  1 10  1  0  0  0  0
  1 11  1  0  0  0  0
  4 12  1  0  0  0  0
  4 13  1  0  0  0  0
  5 14  1  0  0  0  0
  6 15  1  0  0  0  0
  6 16  1  0  0  0  0
  6 17  1  0  0  0  0
  7 18  1  0  0  0  0
  7 19  1  0  0  0  0
  7 20  1  0  0  0  0
  8 21  1  0  0  0  0
M  END
