 xtb: 6.7.1 (edcfbbe)
          04112511413D

 14 13  0     0  0            999 V2000
   -1.3601   -0.2861   -0.4536 C   0  0  0  0  0  0  0  0  0  0  0  0
   -0.0107   -0.0394    0.2325 C   0  0  0  0  0  0  0  0  0  0  0  0
    1.1135   -0.7964   -0.4937 C   0  0  0  0  0  0  0  0  0  0  0  0
    2.3711   -0.4888    0.0619 O   0  0  0  0  0  0  0  0  0  0  0  0
    0.2627    1.3454    0.2440 O   0  0  0  0  0  0  0  0  0  0  0  0
   -2.4608    0.2090    0.2651 O   0  0  0  0  0  0  0  0  0  0  0  0
   -1.4733   -1.3635   -0.6362 H   0  0  0  0  0  0  0  0  0  0  0  0
   -1.3735    0.2423   -1.4086 H   0  0  0  0  0  0  0  0  0  0  0  0
   -0.0693   -0.3959    1.2768 H   0  0  0  0  0  0  0  0  0  0  0  0
    1.1567   -0.4625   -1.5328 H   0  0  0  0  0  0  0  0  0  0  0  0
    0.9188   -1.8732   -0.4737 H   0  0  0  0  0  0  0  0  0  0  0  0
    2.4578   -0.9116    0.9281 H   0  0  0  0  0  0  0  0  0  0  0  0
    1.2266    1.4583    0.2790 H   0  0  0  0  0  0  0  0  0  0  0  0
   -2.4683   -0.1749    1.1536 H   0  0  0  0  0  0  0  0  0  0  0  0
  1  2  1  0  0  0  0
  2  3  1  0  0  0  0
  3  4  1  0  0  0  0
  2  5  1  0  0  0  0
  1  6  1  0  0  0  0
  1  7  1  0  0  0  0
  1  8  1  0  0  0  0
  2  9  1  0  0  0  0
  3 10  1  0  0  0  0
  3 11  1  0  0  0  0
  4 12  1  0  0  0  0
  5 13  1  0  0  0  0
  6 14  1  0  0  0  0
M  END
