 xtb: 6.7.1 (edcfbbe)
          04112512043D

 14 13  0     0  0            999 V2000
    2.0743   -0.6136    0.1855 C   0  0  0  0  0  0  0  0  0  0  0  0
    0.7624   -0.4508   -0.3023 O   0  0  0  0  0  0  0  0  0  0  0  0
   -0.0095    0.4581    0.4615 C   0  0  0  0  0  0  0  0  0  0  0  0
   -1.3970    0.5776   -0.1845 C   0  0  0  0  0  0  0  0  0  0  0  0
   -2.1524   -0.6610   -0.2198 N   0  0  0  0  0  0  0  0  0  0  0  0
    2.0662   -1.0039    1.2097 H   0  0  0  0  0  0  0  0  0  0  0  0
    2.6172    0.3379    0.1710 H   0  0  0  0  0  0  0  0  0  0  0  0
    2.5600   -1.3258   -0.4767 H   0  0  0  0  0  0  0  0  0  0  0  0
   -0.0982    0.0889    1.4958 H   0  0  0  0  0  0  0  0  0  0  0  0
    0.4818    1.4413    0.4862 H   0  0  0  0  0  0  0  0  0  0  0  0
   -1.9754    1.3223    0.3667 H   0  0  0  0  0  0  0  0  0  0  0  0
   -1.2709    0.9194   -1.2140 H   0  0  0  0  0  0  0  0  0  0  0  0
   -2.2754   -1.0115    0.7252 H   0  0  0  0  0  0  0  0  0  0  0  0
   -1.6137   -1.3544   -0.7291 H   0  0  0  0  0  0  0  0  0  0  0  0
  1  2  1  0  0  0  0
  2  3  1  0  0  0  0
  3  4  1  0  0  0  0
  4  5  1  0  0  0  0
  1  6  1  0  0  0  0
  1  7  1  0  0  0  0
  1  8  1  0  0  0  0
  3  9  1  0  0  0  0
  3 10  1  0  0  0  0
  4 11  1  0  0  0  0
  4 12  1  0  0  0  0
  5 13  1  0  0  0  0
  5 14  1  0  0  0  0
M  END
