 xtb: 6.7.1 (edcfbbe)
          04112512093D

 26 27  0     0  0            999 V2000
    0.5229    1.9330    0.3483 C   0  0  0  0  0  0  0  0  0  0  0  0
    1.8712    2.1826    0.4248 C   0  0  0  0  0  0  0  0  0  0  0  0
    2.8142    1.1734    0.1970 C   0  0  0  0  0  0  0  0  0  0  0  0
    2.3499   -0.1174   -0.1174 C   0  0  0  0  0  0  0  0  0  0  0  0
    0.9722   -0.3522   -0.1825 C   0  0  0  0  0  0  0  0  0  0  0  0
    0.0493    0.6507    0.0458 C   0  0  0  0  0  0  0  0  0  0  0  0
   -1.3969    0.3936   -0.0369 C   0  0  0  0  0  0  0  0  0  0  0  0
   -2.2463    1.2917   -0.6835 C   0  0  0  0  0  0  0  0  0  0  0  0
   -3.6068    1.0662   -0.7773 C   0  0  0  0  0  0  0  0  0  0  0  0
   -4.1281   -0.0794   -0.2071 C   0  0  0  0  0  0  0  0  0  0  0  0
   -3.3363   -0.9986    0.4537 C   0  0  0  0  0  0  0  0  0  0  0  0
   -1.9809   -0.7404    0.5226 C   0  0  0  0  0  0  0  0  0  0  0  0
   -1.2125   -1.6338    1.1988 F   0  0  0  0  0  0  0  0  0  0  0  0
   -5.4630   -0.3159   -0.2921 F   0  0  0  0  0  0  0  0  0  0  0  0
    3.2180   -1.2706   -0.3963 C   0  0  0  0  0  0  0  0  0  0  0  0
    2.8054   -2.3721   -0.7100 O   0  0  0  0  0  0  0  0  0  0  0  0
    4.5301   -1.0369   -0.2856 O   0  0  0  0  0  0  0  0  0  0  0  0
    4.1016    1.5236    0.2952 O   0  0  0  0  0  0  0  0  0  0  0  0
   -0.1795    2.7273    0.5448 H   0  0  0  0  0  0  0  0  0  0  0  0
    2.2446    3.1646    0.6662 H   0  0  0  0  0  0  0  0  0  0  0  0
    0.6571   -1.3539   -0.4341 H   0  0  0  0  0  0  0  0  0  0  0  0
   -1.8221    2.1730   -1.1360 H   0  0  0  0  0  0  0  0  0  0  0  0
   -4.2582    1.7588   -1.2835 H   0  0  0  0  0  0  0  0  0  0  0  0
   -3.7547   -1.8834    0.9031 H   0  0  0  0  0  0  0  0  0  0  0  0
    5.0586   -1.8349   -0.4802 H   0  0  0  0  0  0  0  0  0  0  0  0
    4.6937    0.7663    0.1314 H   0  0  0  0  0  0  0  0  0  0  0  0
  1  2  4  0  0  0  0
  2  3  4  0  0  0  0
  3  4  4  0  0  0  0
  4  5  4  0  0  0  0
  1  6  4  0  0  0  0
  5  6  4  0  0  0  0
  6  7  1  0  0  0  0
  7  8  4  0  0  0  0
  8  9  4  0  0  0  0
  9 10  4  0  0  0  0
 10 11  4  0  0  0  0
  7 12  4  0  0  0  0
 11 12  4  0  0  0  0
 12 13  1  0  0  0  0
 10 14  1  0  0  0  0
  4 15  1  0  0  0  0
 15 16  2  0  0  0  0
 15 17  1  0  0  0  0
  3 18  1  0  0  0  0
  1 19  1  0  0  0  0
  2 20  1  0  0  0  0
  5 21  1  0  0  0  0
  8 22  1  0  0  0  0
  9 23  1  0  0  0  0
 11 24  1  0  0  0  0
 17 25  1  0  0  0  0
 18 26  1  0  0  0  0
M  END
