  13
 
 C         -1.3533822560       -1.2646428938        0.0355476547
 C         -0.6703099812        0.0159705705        0.4983039656
 C         -1.3586686669        1.2611078411       -0.0466255613
 N          0.7248084705        0.0031437480       -0.0152127715
 O          0.8734375699       -0.0406794107       -1.2112830932
 O          1.6142162849        0.0381933055        0.7999353888
 H         -0.8530590500       -2.1396406097        0.4450160738
 H         -2.3882476369       -1.2716247503        0.3661203746
 H         -1.3303808286       -1.3228112456       -1.0504467565
 H         -0.5957511122        0.0518475202        1.5889261971
 H         -0.8619912951        2.1629074686        0.3050759577
 H         -2.3935978531        1.2853050062        0.2829750543
 H         -1.3358615267        1.2486032021       -1.1341094986
          13
        -20.95824867
 C         -1.3509561764        1.2629094613        0.0032691013
 C         -0.6672809872       -0.0035064402       -0.4964066704
 C         -1.3494207344       -1.2641244960        0.0199508831
 N          0.7304058512        0.0004840163        0.0095851149
 O          1.6155231436       -0.0070973023       -0.8109324631
 O          0.8856859773        0.0108443131        1.2056006473
 H         -0.8579928771        2.1496391816       -0.3895812799
 H         -2.3889535261        1.2734578998       -0.3172081832
 H         -1.3179012168        1.2949587304        1.0901625497
 H         -0.5987044662       -0.0107803743       -1.5879913045
 H         -1.3170769397       -1.2814214554        1.1071316278
 H         -0.8548680486       -2.1552321820       -0.3606749520
 H         -2.3871756426       -1.2805630252       -0.3011049430
