24
 xtb: 6.7.1 (edcfbbe)
C           -2.64453505069964       -1.24844622480445        0.24773289105242
C           -2.51212485528230        0.26601378769816        0.10009160154564
C           -1.20227629013467        0.74557180854141       -0.53219565868589
C            0.07203076453237        0.42734064959338        0.25697040625500
C            0.62012242563960       -1.02496199913093        0.09863503982757
C            2.12234853276213       -0.88954591669289       -0.24218218314286
C            2.49418365350808        0.52094289091532        0.22841220461986
C            1.25455112325041        1.32593728402219       -0.15735776729453
H           -1.89910833994406       -1.65529599184632        0.93761318781166
H           -3.63356771381173       -1.51506085533441        0.63567905789174
H           -2.51797195080054       -1.75261551143337       -0.71730510477929
H           -3.34649422969301        0.63708172662128       -0.50867861714758
H           -2.61942720173333        0.73618067234819        1.08693951304932
H           -1.10437232714786        0.32892188331944       -1.54550748299077
H           -1.26756387596307        1.83576305378111       -0.65154411342537
H           -0.13221441979531        0.60990975659212        1.32131870965403
H            0.48595759558550       -1.59103234263661        1.02569979604099
H            0.08395486816056       -1.56788796241720       -0.68598089594288
H            2.73257774410383       -1.67401252918365        0.21623454492126
H            2.26773689226273       -0.95318008703228       -1.32719707067151
H            2.62205236209334        0.53413864110330        1.31870741455951
H            3.41775916965027        0.89634259186851       -0.22399043442535
H            1.20609760585738        2.31618748602261        0.30760144663558
H            1.23800882623551        1.46786599225776       -1.24748072864356
