  26
 
 C         -2.7216639219       -1.2779865341        0.8998324038
 C         -2.5179543156       -0.3080256482       -0.2608254601
 C         -3.7468350128        0.5750834814       -0.4572650212
 C         -1.2900110364        0.5649275638       -0.0148800076
 O         -0.1241998902       -0.2599952665       -0.0005866584
 C          1.0486894444        0.3701606597        0.0987216247
 O          1.1584801890        1.5650733591        0.1842137162
 C          2.2028181430       -0.6151710849        0.0488652381
 C          2.6766060555       -0.6976315352       -1.4054486773
 C          3.3271788316       -0.1501637906        0.9686431327
 H         -1.8263313525       -1.8751333420        1.0501981194
 H         -3.5550219571       -1.9454507676        0.6949186447
 H         -2.9336029541       -0.7317711456        1.8166063508
 H         -2.3390055289       -0.8850983393       -1.1739824534
 H         -3.6101053591        1.2486360538       -1.2999326379
 H         -3.9298639974        1.1721000018        0.4335076330
 H         -4.6238296396       -0.0388180094       -0.6457703692
 H         -1.1765971734        1.3201318865       -0.8009043948
 H         -1.3657359817        1.0868291456        0.9459756240
 H          1.8278277747       -1.5937502135        0.3610784654
 H          3.4999134776       -1.4032350636       -1.4892242120
 H          3.0180036278        0.2789801060       -1.7411698207
 H          1.8680971815       -1.0280445633       -2.0536846317
 H          4.1957776373       -0.7946358812        0.8596795893
 H          3.0057925958       -0.1689280786        2.0073184332
 H          3.6073774144        0.8692491107        0.7158153780
          26
        -33.44977557
 C         -2.4116576467       -1.5473908706        0.1610158842
 C         -2.1684956449       -0.1097141287       -0.2899190595
 C         -3.4866137759        0.6228155490       -0.5195128320
 C         -1.3334125176        0.6417020591        0.7516160554
 O         -0.0450537511        0.0524929176        0.9217754526
 C          0.9084373262        0.4101708427        0.0565610560
 O          0.7556955878        1.2198172485       -0.8198109065
 C          2.1902569409       -0.3607239895        0.3171851262
 C          2.2516892586       -1.5067690747       -0.6969658534
 C          3.3939312874        0.5655120091        0.1731367381
 H         -3.0217692424       -1.5623259900        1.0619330866
 H         -1.4681018090       -2.0427179878        0.3774190730
 H         -2.9276588315       -2.1070936955       -0.6152903133
 H         -1.5991897378       -0.1190729784       -1.2254686412
 H         -4.0569334774        0.6779343335        0.4055133724
 H         -4.0831179615        0.0967654328       -1.2604481508
 H         -3.3078278018        1.6339208219       -0.8766627603
 H         -1.2062914948        1.6855941599        0.4463905528
 H         -1.8063768373        0.5948952914        1.7349311943
 H          2.1398126048       -0.7727260833        1.3286663706
 H          3.1620736120       -2.0838450728       -0.5528327234
 H          2.2472382184       -1.1071847191       -1.7085803041
 H          1.3977036568       -2.1704611338       -0.5799304315
 H          4.3180663315        0.0008279065        0.2684011629
 H          3.3766745347        1.3386311725        0.9377853605
 H          3.3708195521        1.0461951292       -0.8017149580
