 22

C     -0.875000    -1.035000    -3.910000
C      0.584000    -1.013000    -3.506000
O      0.672000    -1.031000    -2.078000
C      1.929000    -1.014000    -1.566000
O      2.970000    -0.985000    -2.204000
C      1.885000    -1.036000    -0.112000
C      2.921000    -1.631000     0.608000
C      2.878000    -1.652000     2.002000
C      1.800000    -1.079000     2.676000
C      0.764000    -0.484000     1.955000
C      0.807000    -0.463000     0.561000
O      1.757000    -1.099000     4.036000
H     -0.978000    -1.022000    -4.999000
H     -1.370000    -1.929000    -3.519000
H     -1.403000    -0.171000    -3.495000
H      1.071000    -0.107000    -3.878000
H      1.106000    -1.889000    -3.903000
H      3.766000    -2.081000     0.094000
H      3.689000    -2.116000     2.558000
H     -0.079000    -0.036000     2.474000
H     -0.005000     0.004000     0.009000
H      2.543000    -1.544000     4.391000
