 xtb: 6.7.1 (edcfbbe)
          04112511583D

 18 17  0     0  0            999 V2000
   -2.3235    0.4291    0.4917 C   0  0  0  0  0  0  0  0  0  0  0  0
   -0.9831    0.6930   -0.1876 C   0  0  0  0  0  0  0  0  0  0  0  0
    0.0622   -0.3917    0.1004 C   0  0  0  0  0  0  0  0  0  0  0  0
    1.4612    0.0157   -0.3766 C   0  0  0  0  0  0  0  0  0  0  0  0
    2.1412    1.0290    0.5340 C   0  0  0  0  0  0  0  0  0  0  0  0
   -0.2478   -1.6093   -0.5627 O   0  0  0  0  0  0  0  0  0  0  0  0
   -2.1904    0.3208    1.5662 H   0  0  0  0  0  0  0  0  0  0  0  0
   -3.0010    1.2599    0.3122 H   0  0  0  0  0  0  0  0  0  0  0  0
   -2.7931   -0.4730    0.1063 H   0  0  0  0  0  0  0  0  0  0  0  0
   -1.1207    0.7559   -1.2692 H   0  0  0  0  0  0  0  0  0  0  0  0
   -0.5904    1.6479    0.1610 H   0  0  0  0  0  0  0  0  0  0  0  0
    0.1005   -0.5767    1.1872 H   0  0  0  0  0  0  0  0  0  0  0  0
    2.0606   -0.8958   -0.4225 H   0  0  0  0  0  0  0  0  0  0  0  0
    1.3839    0.4095   -1.3914 H   0  0  0  0  0  0  0  0  0  0  0  0
    1.5887    1.9644    0.5638 H   0  0  0  0  0  0  0  0  0  0  0  0
    2.2162    0.6404    1.5469 H   0  0  0  0  0  0  0  0  0  0  0  0
    3.1435    1.2375    0.1701 H   0  0  0  0  0  0  0  0  0  0  0  0
   -1.1298   -1.8985   -0.2943 H   0  0  0  0  0  0  0  0  0  0  0  0
  1  2  1  0  0  0  0
  2  3  1  0  0  0  0
  3  4  1  0  0  0  0
  4  5  1  0  0  0  0
  3  6  1  0  0  0  0
  1  7  1  0  0  0  0
  1  8  1  0  0  0  0
  1  9  1  0  0  0  0
  2 10  1  0  0  0  0
  2 11  1  0  0  0  0
  3 12  1  0  0  0  0
  4 13  1  0  0  0  0
  4 14  1  0  0  0  0
  5 15  1  0  0  0  0
  5 16  1  0  0  0  0
  5 17  1  0  0  0  0
  6 18  1  0  0  0  0
M  END
