21
 xtb: 6.7.1 (edcfbbe)
C           -3.18390400105990        1.23038023905414       -0.67797965052244
C           -1.90853522465121        0.90995662639555        0.01551712677239
O           -1.76957101116122        0.59513196078403        1.17623347055386
O           -0.84361777915083        1.03564720466971       -0.84934566524254
C            0.43155341304936        0.72879559817110       -0.36868174129264
C            1.34065107229739        1.77460402934524       -0.32978639516848
C            2.64232132412033        1.53973479491996        0.09859838010655
C            3.02449832865287        0.26424610879753        0.50719164043071
C            2.10369913184745       -0.77207963327586        0.48011085754975
C            0.79376291338499       -0.56571545252189        0.02808000831366
C           -0.10918961043802       -1.74173881470102        0.02170542845666
O            0.04873294789935       -2.71007921527809        0.74680878134918
O           -1.10461900760452       -1.66747462837438       -0.88253618258992
H           -4.02452417605469        1.03248475410498       -0.01450334239135
H           -3.26828492413526        0.63880292113601       -1.59371311885417
H           -3.17875078744161        2.28650812284414       -0.96692979001812
H            1.01672185015139        2.76397384754153       -0.63352229235032
H            3.35390923356892        2.35838689897130        0.12016855562740
H            4.03755263227810        0.07841369508715        0.84635049425290
H            2.38973717368988       -1.76983453124552        0.79391063425247
H           -1.64379666333954       -2.47398273505034       -0.80333982762658
