 xtb: 6.7.1 (edcfbbe)
          04112511033D

 23 22  0     0  0            999 V2000
    2.5181    0.1710    0.6261 C   0  0  0  0  0  0  0  0  0  0  0  0
    1.1796    0.8562    0.3688 C   0  0  0  0  0  0  0  0  0  0  0  0
   -0.0000   -0.0691    0.0000 C   0  0  0  0  0  0  0  0  0  0  0  0
    0.3697   -0.9524   -1.1936 C   0  0  0  0  0  0  0  0  0  0  0  0
   -0.3702   -0.9519    1.1939 C   0  0  0  0  0  0  0  0  0  0  0  0
   -1.1791    0.8568   -0.3689 C   0  0  0  0  0  0  0  0  0  0  0  0
   -2.5180    0.1724   -0.6263 C   0  0  0  0  0  0  0  0  0  0  0  0
    2.4419   -0.5633    1.4234 H   0  0  0  0  0  0  0  0  0  0  0  0
    3.2524    0.9156    0.9258 H   0  0  0  0  0  0  0  0  0  0  0  0
    2.8865   -0.3222   -0.2689 H   0  0  0  0  0  0  0  0  0  0  0  0
    0.9016    1.4210    1.2624 H   0  0  0  0  0  0  0  0  0  0  0  0
    1.3154    1.5773   -0.4416 H   0  0  0  0  0  0  0  0  0  0  0  0
    0.7124   -0.3439   -2.0278 H   0  0  0  0  0  0  0  0  0  0  0  0
   -0.4882   -1.5333   -1.5209 H   0  0  0  0  0  0  0  0  0  0  0  0
    1.1575   -1.6503   -0.9244 H   0  0  0  0  0  0  0  0  0  0  0  0
   -1.1585   -1.6494    0.9248 H   0  0  0  0  0  0  0  0  0  0  0  0
    0.4873   -1.5333    1.5213 H   0  0  0  0  0  0  0  0  0  0  0  0
   -0.7126   -0.3430    2.0280 H   0  0  0  0  0  0  0  0  0  0  0  0
   -1.3145    1.5782    0.4413 H   0  0  0  0  0  0  0  0  0  0  0  0
   -0.9007    1.4213   -1.2626 H   0  0  0  0  0  0  0  0  0  0  0  0
   -2.4421   -0.5620   -1.4235 H   0  0  0  0  0  0  0  0  0  0  0  0
   -2.8867   -0.3205    0.2687 H   0  0  0  0  0  0  0  0  0  0  0  0
   -3.2519    0.9174   -0.9261 H   0  0  0  0  0  0  0  0  0  0  0  0
  1  2  1  0  0  0  0
  2  3  1  0  0  0  0
  3  4  1  0  0  0  0
  3  5  1  0  0  0  0
  3  6  1  0  0  0  0
  6  7  1  0  0  0  0
  1  8  1  0  0  0  0
  1  9  1  0  0  0  0
  1 10  1  0  0  0  0
  2 11  1  0  0  0  0
  2 12  1  0  0  0  0
  4 13  1  0  0  0  0
  4 14  1  0  0  0  0
  4 15  1  0  0  0  0
  5 16  1  0  0  0  0
  5 17  1  0  0  0  0
  5 18  1  0  0  0  0
  6 19  1  0  0  0  0
  6 20  1  0  0  0  0
  7 21  1  0  0  0  0
  7 22  1  0  0  0  0
  7 23  1  0  0  0  0
M  END
