29
 xtb: 6.7.1 (edcfbbe)
C           -3.24745624174882        1.02529481188555        0.08287272249180
C           -2.19488983361802        0.01067960066054       -0.36695782119910
C           -2.59085531835080       -1.39537320485091        0.08654627505449
C           -0.80912168984902        0.42228360445282        0.15414517310429
C            0.33241169636479       -0.46009051635938       -0.35156867225116
C            1.76460595787963        0.00004224298563       -0.00080623018056
C            2.74210297797623       -1.04602360606756       -0.55223920608619
C            2.08215316611346        1.35575718130345       -0.64295564094033
C            1.94568858669685        0.09806798258945        1.51850714989236
H           -3.31648486062594        1.04575607373963        1.17773969331498
H           -4.23826047649764        0.77119599106187       -0.30964307113937
H           -2.99751460017672        2.03656990549177       -0.25680545464956
H           -2.15628694384456        0.01963188009359       -1.46636485653061
H           -3.59682385084667       -1.64850600224074       -0.26626018174883
H           -1.90533564128139       -2.16005550559896       -0.29103677174349
H           -2.59449835827277       -1.45627502916887        1.18244343332473
H           -0.63052436613645        1.46308992269990       -0.14393275182491
H           -0.83746015826601        0.41100797309639        1.25249874310333
H            0.25926611655624       -0.53847153222570       -1.44638600551929
H            0.20709878401205       -1.47748381188926        0.04183076826188
H            2.63618682481285       -1.14600797959294       -1.63897451209380
H            3.77938033547578       -0.76358845205044       -0.33815422271592
H            2.55876943017856       -2.02898204265885       -0.10270829264108
H            1.44544447629346        2.15368366713688       -0.24766601475153
H            3.12341787368945        1.63664570843844       -0.44618748453258
H            1.94288584779363        1.31605744211939       -1.72981760503517
H            1.31583615842811        0.88280908458310        1.95016685981355
H            2.98725433235407        0.33440418916798        1.76552163089476
H            1.68892534695737       -0.85012572765653        2.00585140629438
