 xtb: 6.7.1 (edcfbbe)
          04112511403D

 35 35  0     0  0            999 V2000
    0.1091   -2.9955   -0.2056 C   0  0  0  0  0  0  0  0  0  0  0  0
    0.7688   -1.6548   -0.1479 C   0  0  0  0  0  0  0  0  0  0  0  0
    2.1479   -1.4947    0.0399 C   0  0  0  0  0  0  0  0  0  0  0  0
    2.7200   -0.3035    0.1065 N   0  0  0  0  0  0  0  0  0  0  0  0
    1.9439    0.7825   -0.0255 C   0  0  0  0  0  0  0  0  0  0  0  0
    0.6174    0.7334   -0.2497 N   0  0  0  0  0  0  0  0  0  0  0  0
    0.0659   -0.4603   -0.2842 C   0  0  0  0  0  0  0  0  0  0  0  0
   -1.2865   -0.5134   -0.5484 O   0  0  0  0  0  0  0  0  0  0  0  0
   -2.1075    0.4182    0.0360 C   0  0  0  0  0  0  0  0  0  0  0  0
   -1.8122    0.9996    1.0663 O   0  0  0  0  0  0  0  0  0  0  0  0
   -3.2619    0.5564   -0.6175 N   0  0  0  0  0  0  0  0  0  0  0  0
   -4.2996    1.4067   -0.0730 C   0  0  0  0  0  0  0  0  0  0  0  0
   -3.5991   -0.1429   -1.8383 C   0  0  0  0  0  0  0  0  0  0  0  0
    2.5167    1.9882    0.0561 N   0  0  0  0  0  0  0  0  0  0  0  0
    3.9402    2.1444    0.2318 C   0  0  0  0  0  0  0  0  0  0  0  0
    1.7441    3.2034   -0.0232 C   0  0  0  0  0  0  0  0  0  0  0  0
    3.0466   -2.6787    0.1840 C   0  0  0  0  0  0  0  0  0  0  0  0
    0.4635   -3.5568   -1.0689 H   0  0  0  0  0  0  0  0  0  0  0  0
    0.3394   -3.5699    0.6901 H   0  0  0  0  0  0  0  0  0  0  0  0
   -0.9679   -2.8759   -0.2826 H   0  0  0  0  0  0  0  0  0  0  0  0
   -4.5304    2.2037   -0.7796 H   0  0  0  0  0  0  0  0  0  0  0  0
   -3.9412    1.8380    0.8583 H   0  0  0  0  0  0  0  0  0  0  0  0
   -5.1971    0.8175    0.1156 H   0  0  0  0  0  0  0  0  0  0  0  0
   -4.0098    0.5723   -2.5502 H   0  0  0  0  0  0  0  0  0  0  0  0
   -4.3448   -0.9131   -1.6343 H   0  0  0  0  0  0  0  0  0  0  0  0
   -2.7115   -0.6047   -2.2593 H   0  0  0  0  0  0  0  0  0  0  0  0
    4.1457    2.6468    1.1788 H   0  0  0  0  0  0  0  0  0  0  0  0
    4.3457    2.7447   -0.5840 H   0  0  0  0  0  0  0  0  0  0  0  0
    4.4009    1.1618    0.2326 H   0  0  0  0  0  0  0  0  0  0  0  0
    1.9394    3.7183   -0.9663 H   0  0  0  0  0  0  0  0  0  0  0  0
    2.0171    3.8590    0.8043 H   0  0  0  0  0  0  0  0  0  0  0  0
    0.6884    2.9544    0.0428 H   0  0  0  0  0  0  0  0  0  0  0  0
    4.0717   -2.3425    0.2974 H   0  0  0  0  0  0  0  0  0  0  0  0
    2.7563   -3.2613    1.0556 H   0  0  0  0  0  0  0  0  0  0  0  0
    2.9635   -3.3177   -0.6921 H   0  0  0  0  0  0  0  0  0  0  0  0
  1  2  1  0  0  0  0
  2  3  4  0  0  0  0
  3  4  4  0  0  0  0
  4  5  4  0  0  0  0
  5  6  4  0  0  0  0
  2  7  4  0  0  0  0
  6  7  4  0  0  0  0
  7  8  1  0  0  0  0
  8  9  1  0  0  0  0
  9 10  2  0  0  0  0
  9 11  4  0  0  0  0
 11 12  1  0  0  0  0
 11 13  1  0  0  0  0
  5 14  4  0  0  0  0
 14 15  1  0  0  0  0
 14 16  1  0  0  0  0
  3 17  1  0  0  0  0
  1 18  1  0  0  0  0
  1 19  1  0  0  0  0
  1 20  1  0  0  0  0
 12 21  1  0  0  0  0
 12 22  1  0  0  0  0
 12 23  1  0  0  0  0
 13 24  1  0  0  0  0
 13 25  1  0  0  0  0
 13 26  1  0  0  0  0
 15 27  1  0  0  0  0
 15 28  1  0  0  0  0
 15 29  1  0  0  0  0
 16 30  1  0  0  0  0
 16 31  1  0  0  0  0
 16 32  1  0  0  0  0
 17 33  1  0  0  0  0
 17 34  1  0  0  0  0
 17 35  1  0  0  0  0
M  END
