 xtb: 6.7.1 (edcfbbe)
          04112512243D

 23 22  0     0  0            999 V2000
    2.1678    1.3236   -0.5153 C   0  0  0  0  0  0  0  0  0  0  0  0
    1.5863    0.2817    0.4343 C   0  0  0  0  0  0  0  0  0  0  0  0
    0.4033   -0.4993   -0.1576 C   0  0  0  0  0  0  0  0  0  0  0  0
    0.6758   -0.7781   -1.1828 H   0  0  0  0  0  0  0  0  0  0  0  0
    0.1942   -1.7893    0.6363 C   0  0  0  0  0  0  0  0  0  0  0  0
   -0.8769    0.3580   -0.2491 C   0  0  0  0  0  0  0  0  0  0  0  0
   -1.8607   -0.2264   -1.2634 C   0  0  0  0  0  0  0  0  0  0  0  0
   -1.5763    0.5502    1.0957 C   0  0  0  0  0  0  0  0  0  0  0  0
    1.4399    2.0953   -0.7524 H   0  0  0  0  0  0  0  0  0  0  0  0
    3.0316    1.8036   -0.0613 H   0  0  0  0  0  0  0  0  0  0  0  0
    2.4848    0.8553   -1.4447 H   0  0  0  0  0  0  0  0  0  0  0  0
    1.2790    0.7674    1.3623 H   0  0  0  0  0  0  0  0  0  0  0  0
    2.3751   -0.4309    0.6864 H   0  0  0  0  0  0  0  0  0  0  0  0
    1.0619   -2.4364    0.5269 H   0  0  0  0  0  0  0  0  0  0  0  0
    0.0637   -1.5751    1.6938 H   0  0  0  0  0  0  0  0  0  0  0  0
   -0.6767   -2.3323    0.2795 H   0  0  0  0  0  0  0  0  0  0  0  0
   -0.5805    1.3462   -0.6164 H   0  0  0  0  0  0  0  0  0  0  0  0
   -2.7288    0.4217   -1.3607 H   0  0  0  0  0  0  0  0  0  0  0  0
   -2.2065   -1.2083   -0.9497 H   0  0  0  0  0  0  0  0  0  0  0  0
   -1.3939   -0.3222   -2.2412 H   0  0  0  0  0  0  0  0  0  0  0  0
   -2.3784    1.2780    0.9926 H   0  0  0  0  0  0  0  0  0  0  0  0
   -0.8850    0.9157    1.8506 H   0  0  0  0  0  0  0  0  0  0  0  0
   -2.0105   -0.3831    1.4438 H   0  0  0  0  0  0  0  0  0  0  0  0
  1  2  1  0  0  0  0
  2  3  1  0  0  0  0
  3  4  1  0  0  0  0
  3  5  1  0  0  0  0
  3  6  1  0  0  0  0
  6  7  1  0  0  0  0
  6  8  1  0  0  0  0
  1  9  1  0  0  0  0
  1 10  1  0  0  0  0
  1 11  1  0  0  0  0
  2 12  1  0  0  0  0
  2 13  1  0  0  0  0
  5 14  1  0  0  0  0
  5 15  1  0  0  0  0
  5 16  1  0  0  0  0
  6 17  1  0  0  0  0
  7 18  1  0  0  0  0
  7 19  1  0  0  0  0
  7 20  1  0  0  0  0
  8 21  1  0  0  0  0
  8 22  1  0  0  0  0
  8 23  1  0  0  0  0
M  END
