 xtb: 6.7.1 (edcfbbe)
          04112512243D

 14 13  0     0  0            999 V2000
   -2.8113    0.1912    0.0001 C   0  0  0  0  0  0  0  0  0  0  0  0
   -1.4329   -0.4579   -0.0005 C   0  0  0  0  0  0  0  0  0  0  0  0
   -0.3217    0.5901    0.0003 C   0  0  0  0  0  0  0  0  0  0  0  0
    1.0504   -0.0343   -0.0000 C   0  0  0  0  0  0  0  0  0  0  0  0
    1.2580   -1.2256   -0.0003 O   0  0  0  0  0  0  0  0  0  0  0  0
    2.0794    0.8160   -0.0000 O   0  0  0  0  0  0  0  0  0  0  0  0
   -2.9416    0.8114    0.8835 H   0  0  0  0  0  0  0  0  0  0  0  0
   -3.5855   -0.5708   -0.0006 H   0  0  0  0  0  0  0  0  0  0  0  0
   -2.9417    0.8129   -0.8823 H   0  0  0  0  0  0  0  0  0  0  0  0
   -1.3191   -1.0976    0.8765 H   0  0  0  0  0  0  0  0  0  0  0  0
   -1.3192   -1.0962   -0.8786 H   0  0  0  0  0  0  0  0  0  0  0  0
   -0.4123    1.2256   -0.8841 H   0  0  0  0  0  0  0  0  0  0  0  0
   -0.4124    1.2242    0.8857 H   0  0  0  0  0  0  0  0  0  0  0  0
    1.8168    1.7547    0.0002 H   0  0  0  0  0  0  0  0  0  0  0  0
  1  2  1  0  0  0  0
  2  3  1  0  0  0  0
  3  4  1  0  0  0  0
  4  5  2  0  0  0  0
  4  6  1  0  0  0  0
  1  7  1  0  0  0  0
  1  8  1  0  0  0  0
  1  9  1  0  0  0  0
  2 10  1  0  0  0  0
  2 11  1  0  0  0  0
  3 12  1  0  0  0  0
  3 13  1  0  0  0  0
  6 14  1  0  0  0  0
M  END
