 xtb: 6.7.1 (edcfbbe)
          04112512293D

 23 22  0     0  0            999 V2000
   -2.1267    1.1673    0.1710 C   0  0  0  0  0  0  0  0  0  0  0  0
   -1.0849    0.0492    0.2096 C   0  0  0  0  0  0  0  0  0  0  0  0
   -1.7749   -1.2997    0.0095 C   0  0  0  0  0  0  0  0  0  0  0  0
    0.0044    0.2872   -0.8528 C   0  0  0  0  0  0  0  0  0  0  0  0
    1.4539    0.0700   -0.3903 C   0  0  0  0  0  0  0  0  0  0  0  0
    1.8750    1.1025    0.6545 C   0  0  0  0  0  0  0  0  0  0  0  0
    1.7001   -1.3459    0.1253 C   0  0  0  0  0  0  0  0  0  0  0  0
   -1.6648    2.1303    0.3769 H   0  0  0  0  0  0  0  0  0  0  0  0
   -2.5979    1.2120   -0.8088 H   0  0  0  0  0  0  0  0  0  0  0  0
   -2.9011    0.9936    0.9152 H   0  0  0  0  0  0  0  0  0  0  0  0
   -0.6281    0.0542    1.2033 H   0  0  0  0  0  0  0  0  0  0  0  0
   -2.2915   -1.3199   -0.9483 H   0  0  0  0  0  0  0  0  0  0  0  0
   -1.0555   -2.1134    0.0291 H   0  0  0  0  0  0  0  0  0  0  0  0
   -2.5079   -1.4719    0.7951 H   0  0  0  0  0  0  0  0  0  0  0  0
   -0.0697    1.3156   -1.2137 H   0  0  0  0  0  0  0  0  0  0  0  0
   -0.1867   -0.3652   -1.7077 H   0  0  0  0  0  0  0  0  0  0  0  0
    2.0875    0.2176   -1.2740 H   0  0  0  0  0  0  0  0  0  0  0  0
    1.3029    0.9885    1.5718 H   0  0  0  0  0  0  0  0  0  0  0  0
    2.9285    0.9835    0.8972 H   0  0  0  0  0  0  0  0  0  0  0  0
    1.7215    2.1111    0.2777 H   0  0  0  0  0  0  0  0  0  0  0  0
    1.4138   -2.0806   -0.6238 H   0  0  0  0  0  0  0  0  0  0  0  0
    2.7552   -1.4834    0.3519 H   0  0  0  0  0  0  0  0  0  0  0  0
    1.1324   -1.5332    1.0331 H   0  0  0  0  0  0  0  0  0  0  0  0
  1  2  1  0  0  0  0
  2  3  1  0  0  0  0
  2  4  1  0  0  0  0
  4  5  1  0  0  0  0
  5  6  1  0  0  0  0
  5  7  1  0  0  0  0
  1  8  1  0  0  0  0
  1  9  1  0  0  0  0
  1 10  1  0  0  0  0
  2 11  1  0  0  0  0
  3 12  1  0  0  0  0
  3 13  1  0  0  0  0
  3 14  1  0  0  0  0
  4 15  1  0  0  0  0
  4 16  1  0  0  0  0
  5 17  1  0  0  0  0
  6 18  1  0  0  0  0
  6 19  1  0  0  0  0
  6 20  1  0  0  0  0
  7 21  1  0  0  0  0
  7 22  1  0  0  0  0
  7 23  1  0  0  0  0
M  END
