  17
 
 C         -3.2745031392       -0.3364379548        0.0003950420
 C         -1.9389848150        0.3952087820        0.0004290028
 C         -0.7672237054       -0.5816270433        0.0000520069
 C          0.5647285517        0.1292241741       -0.0003761248
 O          0.7302891086        1.3192923554       -0.0017555922
 O          1.5739163212       -0.7560196688       -0.0004625141
 C          2.8862162453       -0.2115643911       -0.0017343338
 H         -4.0967542345        0.3744317538        0.0004938693
 H         -3.3663652134       -0.9665758717       -0.8817159179
 H         -3.3663449239       -0.9667911568        0.8823588967
 H         -1.8665036323        1.0373674011        0.8795083278
 H         -1.8666438374        1.0378936780       -0.8782807107
 H         -0.8028196279       -1.2291104454       -0.8791337001
 H         -0.8020743846       -1.2288820463        0.8793795534
 H          3.5668683197       -1.0586984883        0.0049839744
 H          3.0391860434        0.4116239717        0.8816967112
 H          3.0423963742        0.3998577292       -0.8927709077
          17
        -23.94845778
 C         -2.2620220293        0.8129785263       -0.8146614527
 C         -2.0873933566       -0.2787247002        0.2335053670
 C         -0.8006303550       -0.0852189588        1.0372456600
 C          0.4202891868       -0.3276337488        0.1802207938
 O          0.5575059602       -1.2295034163       -0.6025032272
 O          1.3623116386        0.5975736260        0.4114878236
 C          2.5733719934        0.4580821522       -0.3185971889
 H         -1.4366337789        0.7932347546       -1.5225610484
 H         -3.1880006914        0.6665346500       -1.3653462183
 H         -2.2915613877        1.7946320307       -0.3458565832
 H         -2.0467204354       -1.2525118180       -0.2570927570
 H         -2.9392925621       -0.2730981989        0.9159534120
 H         -0.7666787016       -0.8084991563        1.8558345403
 H         -0.7421896846        0.9187143220        1.4579888762
 H          3.0688079396       -0.4785588519       -0.0549710035
 H          3.1936124705        1.3080033506       -0.0463528601
 H          2.3708071142        0.4571803518       -1.3915611837
