  17
 
 C         -0.3790000000       -0.6980000000        0.7530000000
 C          0.4050000000       -0.5790000000        2.0500000000
 C          1.8850000000       -0.8880000000        1.8410000000
 C          2.6750000000       -0.7720000000        3.1240000000
 O          2.2100000000       -0.4690000000        4.2140000000
 O          3.9850000000       -1.0620000000        2.8650000000
 C          4.8650000000       -0.9950000000        3.9920000000
 H         -1.4350000000       -0.4720000000        0.9260000000
 H         -0.0010000000        0.0010000000        0.0010000000
 H         -0.3100000000       -1.7120000000        0.3460000000
 H         -0.0190000000       -1.2650000000        2.7930000000
 H          0.2870000000        0.4350000000        2.4520000000
 H          2.3100000000       -0.1870000000        1.1130000000
 H          1.9990000000       -1.9090000000        1.4600000000
 H          5.8720000000       -1.2440000000        3.6640000000
 H          4.5200000000       -1.6980000000        4.7470000000
 H          4.8390000000        0.0190000000        4.3840000000
