 xtb: 6.7.1 (edcfbbe)
          04112511193D

 14 13  0     0  0            999 V2000
   -1.3635   -0.3619   -0.4245 C   0  0  0  0  0  0  0  0  0  0  0  0
   -0.0122   -0.0620    0.2460 C   0  0  0  0  0  0  0  0  0  0  0  0
    1.1184   -0.8428   -0.4375 C   0  0  0  0  0  0  0  0  0  0  0  0
    2.3938   -0.5088    0.0522 O   0  0  0  0  0  0  0  0  0  0  0  0
    0.2267    1.3304    0.2560 O   0  0  0  0  0  0  0  0  0  0  0  0
   -2.4229    0.2691    0.2534 O   0  0  0  0  0  0  0  0  0  0  0  0
   -1.5717   -1.4324   -0.3984 H   0  0  0  0  0  0  0  0  0  0  0  0
   -1.3345   -0.0302   -1.4724 H   0  0  0  0  0  0  0  0  0  0  0  0
   -0.0789   -0.3412    1.3042 H   0  0  0  0  0  0  0  0  0  0  0  0
    1.1439   -0.5974   -1.5029 H   0  0  0  0  0  0  0  0  0  0  0  0
    0.9246   -1.9176   -0.3328 H   0  0  0  0  0  0  0  0  0  0  0  0
    2.4364   -0.6907    1.0011 H   0  0  0  0  0  0  0  0  0  0  0  0
    0.5649    1.6057   -0.6081 H   0  0  0  0  0  0  0  0  0  0  0  0
   -2.1558    1.1839    0.4353 H   0  0  0  0  0  0  0  0  0  0  0  0
  1  2  1  0  0  0  0
  2  3  1  0  0  0  0
  3  4  1  0  0  0  0
  2  5  1  0  0  0  0
  1  6  1  0  0  0  0
  1  7  1  0  0  0  0
  1  8  1  0  0  0  0
  2  9  1  0  0  0  0
  3 10  1  0  0  0  0
  3 11  1  0  0  0  0
  4 12  1  0  0  0  0
  5 13  1  0  0  0  0
  6 14  1  0  0  0  0
M  END
