  33
 
 C         -3.4327441439       -1.6345078483        0.3650064754
 C         -2.7192168490       -0.3040339809        0.6052723537
 H         -2.9783454692        0.0583318431        1.6094443807
 C         -1.2201540053       -0.4444266537        0.5010716538
 C         -0.6305893970       -0.7152618835       -0.7304536664
 C          0.7391024671       -0.8507519744       -0.8381338536
 C          1.5607605419       -0.7188039655        0.2765189246
 C          0.9698541096       -0.4475298284        1.5029999132
 C         -0.4026148014       -0.3096312288        1.6152679239
 C          3.0493633335       -0.8343051820        0.1373937366
 C          3.6625192233        0.4208079459       -0.5086390147
 C          3.4462899188        1.6462861977        0.3743141079
 C          5.1516229043        0.2037927952       -0.7624426245
 C         -3.2232229774        0.7596675622       -0.3708228307
 O         -4.1928941633        0.6434693095       -1.0597070744
 O         -2.4943465351        1.8910403589       -0.3833318106
 H         -3.1667354811       -2.0363081367       -0.6087171404
 H         -3.1519989463       -2.3543613794        1.1295456855
 H         -4.5086096335       -1.4850545394        0.3885574571
 H         -1.2534502565       -0.8151584693       -1.6076956071
 H          1.1796351199       -1.0653852081       -1.8008540219
 H          1.5882750081       -0.3431975276        2.3827835033
 H         -0.8414882470       -0.1011589048        2.5815437611
 H          3.5045189856       -0.9865381634        1.1180186534
 H          3.2876243514       -1.6990722800       -0.4864155905
 H          3.1633186956        0.5922802958       -1.4688155410
 H          3.8682200666        2.5314841484       -0.0958904417
 H          3.9292823220        1.5088894219        1.3397765076
 H          2.3853561451        1.8190586273        0.5404235989
 H          5.5894293438        1.0824598343       -1.2303858498
 H          5.6732679037        0.0192986582        0.1744505722
 H          5.3123777123       -0.6489743818       -1.4182914448
 H         -1.7113405976        1.8221646907        0.1816135226
          33
        -45.16343328
 C         -2.8087984098       -1.9327498733       -0.7170205174
 C         -2.5899766424       -0.7802563708        0.2634703464
 H         -2.8801645753       -1.1141487852        1.2690843169
 C         -1.1493114947       -0.3318195428        0.2881359214
 C         -0.3475717601       -0.5415793414        1.4023779992
 C          0.9747690089       -0.1335513645        1.4061243843
 C          1.5279521690        0.4996414904        0.3014470224
 C          0.7196856507        0.7164106329       -0.8096924956
 C         -0.5991621236        0.3078391385       -0.8189897882
 C          2.9686899981        0.9147234583        0.2818125081
 C          3.8311361264       -0.0586500661       -0.5413719498
 C          5.2539766240        0.4796151345       -0.6642216597
 C          3.8395051508       -1.4462237904        0.0931468441
 C         -3.5128794239        0.3916903577       -0.0725367112
 O         -4.4445073591        0.3275077664       -0.8182782079
 O         -3.2190437913        1.5348420917        0.5743838362
 H         -2.2276757330       -2.7998664076       -0.4127480678
 H         -3.8623378916       -2.1972733874       -0.7455759078
 H         -2.5042784563       -1.6406075747       -1.7183520598
 H         -0.7571162458       -1.0347807043        2.2734007284
 H          1.5828921706       -0.3094524187        2.2816364519
 H          1.1296363635        1.2151910501       -1.6758681089
 H         -1.2145507304        0.4905815615       -1.6882098996
 H          3.0516666910        1.9115378862       -0.1579362046
 H          3.3584165904        0.9583926358        1.3007889101
 H          3.3969011044       -0.1377185568       -1.5442246136
 H          5.8667189430       -0.1976842869       -1.2546706737
 H          5.7074476353        0.5814426878        0.3197152959
 H          5.2591193827        1.4544534425       -1.1469767049
 H          4.4363856029       -2.1323175331       -0.5033842228
 H          4.2657332647       -1.4034321860        1.0935425166
 H          2.8293451942       -1.8430398726        0.1641437603
 H         -2.4090157537        1.4554992495        1.0993414592
          33
        -45.17191706
 C         -2.7875235808       -1.6756937688       -1.2621439456
 C         -2.5897872814       -0.8563117174        0.0131802791
 H         -2.8678619095       -1.4424863810        0.8929978208
 C         -1.1531905500       -0.3994473786        0.1604478113
 C         -0.3754192542       -0.8429588868        1.2198257696
 C          0.9421861663       -0.4387988859        1.3422871421
 C          1.5125839654        0.4230167726        0.4155379269
 C          0.7251031835        0.8732946983       -0.6380716888
 C         -0.5896490309        0.4693931496       -0.7663602137
 C          2.9495623147        0.8418443287        0.5205045150
 C          3.8397138036        0.0836290108       -0.4797175631
 C          5.2576875818        0.6479527202       -0.4525542438
 C          3.8545442477       -1.4098249994       -0.1678523912
 C         -3.4459454843        0.3912591155       -0.0075556081
 O         -3.7269690904        1.0392977177       -0.9790526298
 O         -3.8425667086        0.7348243436        1.2254327933
 H         -2.0776591443       -2.4987091531       -1.2883196266
 H         -3.7971403277       -2.0782199054       -1.3004487992
 H         -2.6348011079       -1.0485969939       -2.1359452290
 H         -0.8003152216       -1.5118794146        1.9546905012
 H          1.5333613789       -0.7972942087        2.1729119746
 H          1.1469851595        1.5539105932       -1.3638648728
 H         -1.1895431500        0.8406807283       -1.5837410014
 H          3.0296482203        1.9124001244        0.3166130228
 H          3.3182564737        0.6597911776        1.5320040269
 H          3.4240661404        0.2246072192       -1.4836259779
 H          5.8891706074        0.1250979399       -1.1673432237
 H          5.6932684723        0.5317710678        0.5378918547
 H          5.2582592019        1.7060380741       -0.7054311557
 H          2.8475820475       -1.8190635993       -0.2042633646
 H          4.4689532390       -1.9426465786       -0.8902003158
 H          4.2637382785       -1.5858159256        0.8251037278
 H         -4.3488103448        1.5623992561        1.2010797046
