 33

C     -3.253000     2.296000    -4.307000
C     -2.984000     3.526000    -3.435000
H     -3.949000     4.016000    -3.243000
C     -2.393000     3.175000    -2.111000
C     -1.171000     2.505000    -2.049000
C     -0.618000     2.177000    -0.811000
C     -1.287000     2.520000     0.365000
C     -2.509000     3.190000     0.302000
C     -3.062000     3.517000    -0.936000
C     -0.690000     2.163000     1.704000
C      0.233000     3.252000     2.285000
C     -0.505000     4.576000     2.497000
C      0.826000     2.774000     3.613000
C     -2.117000     4.524000    -4.189000
O     -1.285000     4.238000    -5.039000
O     -2.365000     5.806000    -3.810000
H     -2.332000     1.751000    -4.542000
H     -3.944000     1.604000    -3.812000
H     -3.701000     2.587000    -5.263000
H     -0.643000     2.234000    -2.959000
H      0.334000     1.654000    -0.771000
H     -3.038000     3.459000     1.212000
H     -4.014000     4.039000    -0.976000
H     -1.490000     1.931000     2.419000
H     -0.128000     1.228000     1.579000
H      1.066000     3.433000     1.594000
H      0.162000     5.341000     2.909000
H     -1.350000     4.456000     3.181000
H     -0.904000     4.953000     1.549000
H      1.486000     3.537000     4.041000
H      0.040000     2.557000     4.344000
H      1.418000     1.864000     3.470000
H     -3.054000     5.915000    -3.120000
