  14
 
 C         -3.8599866883        0.5131917338        0.0021444382
 C         -2.7170192583       -0.4941921583       -0.0001853784
 C         -1.3581423951        0.2051301055        0.0000278466
 C         -0.2292995053       -0.8077307313       -0.0006092434
 Br         1.5133864773        0.0794350546       -0.0001075127
 H         -4.8187960945        0.0009618750       -0.0003291477
 H         -3.8092518396        1.1442158894        0.8863605294
 H         -3.8079305733        1.1508426957       -0.8773647328
 H         -2.7967664636       -1.1323465185       -0.8834230003
 H         -2.7951987704       -1.1360052040        0.8806370952
 H         -1.2766313015        0.8446945992       -0.8821214559
 H         -1.2764982329        0.8437897954        0.8828427761
 H         -0.2486579328       -1.4346228639       -0.8916017911
 H         -0.2486945030       -1.4356096714        0.8896491723
          14
        -17.24131133
 C         -3.4352537867        0.5955146417       -0.1516899574
 C         -2.0579339551        0.2793062142        0.4164092833
 C         -1.3910827549       -0.8705752309       -0.3348774264
 C         -0.0286084506       -1.2286485784        0.2272874489
 Br         1.2650197369        0.2176589964       -0.0275049044
 H         -4.0893262262       -0.2711016434       -0.0785222796
 H         -3.8912930650        1.4170116454        0.3949396551
 H         -3.3598556631        0.8809486789       -1.1985688321
 H         -2.1514235077        0.0150453026        1.4730551524
 H         -1.4279595407        1.1690309542        0.3488412211
 H         -2.0207288328       -1.7630796111       -0.2681526614
 H         -1.2947934400       -0.6091860281       -1.3915971573
 H          0.3980471148       -2.0969453869       -0.2734286091
 H         -0.0707410732       -1.4061951601        1.3014712917
