  14
 
 C         -0.7540000000        0.4800000000       -1.7630000000
 C          0.0330000000       -0.3380000000       -0.7510000000
 C         -0.0290000000        0.2850000000        0.6430000000
 C          0.7610000000       -0.5400000000        1.6440000000
 Br         0.6570000000        0.2850000000        3.4050000000
 H         -0.7040000000        0.0260000000       -2.7580000000
 H         -1.8060000000        0.5360000000       -1.4690000000
 H         -0.3650000000        1.5010000000       -1.8310000000
 H          1.0760000000       -0.4090000000       -1.0810000000
 H         -0.3690000000       -1.3570000000       -0.7220000000
 H          0.3660000000        1.3080000000        0.6050000000
 H         -1.0750000000        0.3640000000        0.9630000000
 H          1.8220000000       -0.5920000000        1.3860000000
 H          0.3590000000       -1.5520000000        1.7490000000
