 19

C     -0.497000    -2.034000     0.494000
C      0.350000    -1.028000     0.039000
C      1.648000    -1.337000    -0.366000
C      2.117000    -2.660000    -0.322000
C      3.421000    -2.990000    -0.727000
C      3.869000    -4.310000    -0.676000
C      3.023000    -5.317000    -0.221000
C      1.724000    -5.007000     0.185000
C      1.256000    -3.684000     0.140000
C     -0.048000    -3.354000     0.545000
O      5.136000    -4.614000    -1.071000
H     -1.507000    -1.792000     0.809000
H      0.000000     0.000000     0.000000
H      2.292000    -0.534000    -0.719000
H      4.096000    -2.214000    -1.085000
H      3.367000    -6.347000    -0.180000
H      1.080000    -5.810000     0.536000
H     -0.726000    -4.126000     0.903000
H      5.298000    -5.566000    -0.978000
