 xtb: 6.7.1 (edcfbbe)
          04112512153D

 21 20  0     0  0            999 V2000
    2.0592   -0.9497    0.1726 C   0  0  0  0  0  0  0  0  0  0  0  0
    1.1892    0.0539    0.9236 C   0  0  0  0  0  0  0  0  0  0  0  0
    0.1672    0.8128    0.0560 C   0  0  0  0  0  0  0  0  0  0  0  0
   -0.0500    1.7611    0.5807 H   0  0  0  0  0  0  0  0  0  0  0  0
   -1.1986    0.1183   -0.1541 C   0  0  0  0  0  0  0  0  0  0  0  0
   -1.0871   -1.2658   -0.7867 C   0  0  0  0  0  0  0  0  0  0  0  0
   -2.0024    0.0573    1.1428 C   0  0  0  0  0  0  0  0  0  0  0  0
    0.7850    1.1158   -1.1838 O   0  0  0  0  0  0  0  0  0  0  0  0
    1.4882   -1.8057   -0.1693 H   0  0  0  0  0  0  0  0  0  0  0  0
    2.8503   -1.3036    0.8295 H   0  0  0  0  0  0  0  0  0  0  0  0
    2.5111   -0.4698   -0.6908 H   0  0  0  0  0  0  0  0  0  0  0  0
    0.6606   -0.4413    1.7372 H   0  0  0  0  0  0  0  0  0  0  0  0
    1.8523    0.8007    1.3654 H   0  0  0  0  0  0  0  0  0  0  0  0
   -1.7501    0.7605   -0.8543 H   0  0  0  0  0  0  0  0  0  0  0  0
   -0.7255   -1.9908   -0.0628 H   0  0  0  0  0  0  0  0  0  0  0  0
   -2.0638   -1.5938   -1.1356 H   0  0  0  0  0  0  0  0  0  0  0  0
   -0.4066   -1.2390   -1.6340 H   0  0  0  0  0  0  0  0  0  0  0  0
   -3.0008   -0.3216    0.9392 H   0  0  0  0  0  0  0  0  0  0  0  0
   -2.0921    1.0451    1.5891 H   0  0  0  0  0  0  0  0  0  0  0  0
   -1.5303   -0.6048    1.8640 H   0  0  0  0  0  0  0  0  0  0  0  0
    0.1919    1.6716   -1.7056 H   0  0  0  0  0  0  0  0  0  0  0  0
  1  2  1  0  0  0  0
  2  3  1  0  0  0  0
  3  4  1  0  0  0  0
  3  5  1  0  0  0  0
  5  6  1  0  0  0  0
  5  7  1  0  0  0  0
  3  8  1  0  0  0  0
  1  9  1  0  0  0  0
  1 10  1  0  0  0  0
  1 11  1  0  0  0  0
  2 12  1  0  0  0  0
  2 13  1  0  0  0  0
  5 14  1  0  0  0  0
  6 15  1  0  0  0  0
  6 16  1  0  0  0  0
  6 17  1  0  0  0  0
  7 18  1  0  0  0  0
  7 19  1  0  0  0  0
  7 20  1  0  0  0  0
  8 21  1  0  0  0  0
M  END
