 xtb: 6.7.1 (edcfbbe)
          04112511443D

 15 14  0     0  0            999 V2000
   -2.7160    0.0791    0.0217 C   0  0  0  0  0  0  0  0  0  0  0  0
   -1.3893   -0.6547    0.0188 C   0  0  0  0  0  0  0  0  0  0  0  0
   -0.0000    0.5422   -0.0028 S   0  0  0  0  0  0  0  0  0  0  0  0
    1.3894   -0.6546   -0.0081 C   0  0  0  0  0  0  0  0  0  0  0  0
    2.7159    0.0792   -0.0263 C   0  0  0  0  0  0  0  0  0  0  0  0
   -2.8051    0.7015   -0.8653 H   0  0  0  0  0  0  0  0  0  0  0  0
   -3.5327   -0.6383    0.0339 H   0  0  0  0  0  0  0  0  0  0  0  0
   -2.7925    0.7173    0.8985 H   0  0  0  0  0  0  0  0  0  0  0  0
   -1.2868   -1.2816   -0.8677 H   0  0  0  0  0  0  0  0  0  0  0  0
   -1.2736   -1.2650    0.9152 H   0  0  0  0  0  0  0  0  0  0  0  0
    1.2892   -1.2672    0.8887 H   0  0  0  0  0  0  0  0  0  0  0  0
    1.2717   -1.2795   -0.8942 H   0  0  0  0  0  0  0  0  0  0  0  0
    3.5328   -0.6381   -0.0299 H   0  0  0  0  0  0  0  0  0  0  0  0
    2.7896    0.7038   -0.9132 H   0  0  0  0  0  0  0  0  0  0  0  0
    2.8075    0.7153    0.8507 H   0  0  0  0  0  0  0  0  0  0  0  0
  1  2  1  0  0  0  0
  2  3  1  0  0  0  0
  3  4  1  0  0  0  0
  4  5  1  0  0  0  0
  1  6  1  0  0  0  0
  1  7  1  0  0  0  0
  1  8  1  0  0  0  0
  2  9  1  0  0  0  0
  2 10  1  0  0  0  0
  4 11  1  0  0  0  0
  4 12  1  0  0  0  0
  5 13  1  0  0  0  0
  5 14  1  0  0  0  0
  5 15  1  0  0  0  0
M  END
