 xtb: 6.7.1 (edcfbbe)
          04112511193D

 14 13  0     0  0            999 V2000
   -1.4463    0.3666   -0.2206 C   0  0  0  0  0  0  0  0  0  0  0  0
    0.0157    0.4226    0.2679 C   0  0  0  0  0  0  0  0  0  0  0  0
    0.8434   -0.6501   -0.4543 C   0  0  0  0  0  0  0  0  0  0  0  0
    2.0679   -0.9447    0.1706 O   0  0  0  0  0  0  0  0  0  0  0  0
    0.5918    1.6817   -0.0018 O   0  0  0  0  0  0  0  0  0  0  0  0
   -2.0766   -0.8528    0.0845 O   0  0  0  0  0  0  0  0  0  0  0  0
   -1.4583    0.4532   -1.3096 H   0  0  0  0  0  0  0  0  0  0  0  0
   -2.0060    1.2114    0.2001 H   0  0  0  0  0  0  0  0  0  0  0  0
    0.0445    0.2212    1.3514 H   0  0  0  0  0  0  0  0  0  0  0  0
    1.1000   -0.2734   -1.4465 H   0  0  0  0  0  0  0  0  0  0  0  0
    0.2287   -1.5528   -0.5587 H   0  0  0  0  0  0  0  0  0  0  0  0
    1.9012   -1.3315    1.0419 H   0  0  0  0  0  0  0  0  0  0  0  0
    0.1436    2.3703    0.5096 H   0  0  0  0  0  0  0  0  0  0  0  0
   -2.2123   -0.9193    1.0408 H   0  0  0  0  0  0  0  0  0  0  0  0
  1  2  1  0  0  0  0
  2  3  1  0  0  0  0
  3  4  1  0  0  0  0
  2  5  1  0  0  0  0
  1  6  1  0  0  0  0
  1  7  1  0  0  0  0
  1  8  1  0  0  0  0
  2  9  1  0  0  0  0
  3 10  1  0  0  0  0
  3 11  1  0  0  0  0
  4 12  1  0  0  0  0
  5 13  1  0  0  0  0
  6 14  1  0  0  0  0
M  END
