 xtb: 6.7.1 (edcfbbe)
          04112512413D

 21 20  0     0  0            999 V2000
    1.7549   -0.7025    1.0049 C   0  0  0  0  0  0  0  0  0  0  0  0
    1.1709    0.4599    0.2031 C   0  0  0  0  0  0  0  0  0  0  0  0
    0.8524    1.2535    0.8865 H   0  0  0  0  0  0  0  0  0  0  0  0
   -0.0048    0.0293   -0.6850 C   0  0  0  0  0  0  0  0  0  0  0  0
   -1.2311   -0.5176    0.0536 C   0  0  0  0  0  0  0  0  0  0  0  0
   -1.8453    0.5200    0.9905 C   0  0  0  0  0  0  0  0  0  0  0  0
   -2.2718   -0.9739   -0.9695 C   0  0  0  0  0  0  0  0  0  0  0  0
    2.1732    1.0838   -0.5872 O   0  0  0  0  0  0  0  0  0  0  0  0
    1.9854   -1.5396    0.3490 H   0  0  0  0  0  0  0  0  0  0  0  0
    2.6689   -0.3797    1.4979 H   0  0  0  0  0  0  0  0  0  0  0  0
    1.0513   -1.0322    1.7624 H   0  0  0  0  0  0  0  0  0  0  0  0
   -0.3053    0.8964   -1.2792 H   0  0  0  0  0  0  0  0  0  0  0  0
    0.3554   -0.7378   -1.3768 H   0  0  0  0  0  0  0  0  0  0  0  0
   -0.9299   -1.3886    0.6440 H   0  0  0  0  0  0  0  0  0  0  0  0
   -1.1633    0.7751    1.7970 H   0  0  0  0  0  0  0  0  0  0  0  0
   -2.7601    0.1310    1.4314 H   0  0  0  0  0  0  0  0  0  0  0  0
   -2.0872    1.4280    0.4426 H   0  0  0  0  0  0  0  0  0  0  0  0
   -2.6021   -0.1319   -1.5738 H   0  0  0  0  0  0  0  0  0  0  0  0
   -1.8567   -1.7301   -1.6315 H   0  0  0  0  0  0  0  0  0  0  0  0
   -3.1386   -1.3967   -0.4676 H   0  0  0  0  0  0  0  0  0  0  0  0
    2.5242    0.4336   -1.2121 H   0  0  0  0  0  0  0  0  0  0  0  0
  1  2  1  0  0  0  0
  2  3  1  0  0  0  0
  2  4  1  0  0  0  0
  4  5  1  0  0  0  0
  5  6  1  0  0  0  0
  5  7  1  0  0  0  0
  2  8  1  0  0  0  0
  1  9  1  0  0  0  0
  1 10  1  0  0  0  0
  1 11  1  0  0  0  0
  4 12  1  0  0  0  0
  4 13  1  0  0  0  0
  5 14  1  0  0  0  0
  6 15  1  0  0  0  0
  6 16  1  0  0  0  0
  6 17  1  0  0  0  0
  7 18  1  0  0  0  0
  7 19  1  0  0  0  0
  7 20  1  0  0  0  0
  8 21  1  0  0  0  0
M  END
