 xtb: 6.7.1 (edcfbbe)
          04112512403D

 18 17  0     0  0            999 V2000
   -2.0369    0.8342   -0.6483 C   0  0  0  0  0  0  0  0  0  0  0  0
   -1.3193    0.5544    0.6682 C   0  0  0  0  0  0  0  0  0  0  0  0
   -0.0177   -0.2486    0.5348 C   0  0  0  0  0  0  0  0  0  0  0  0
    0.3987   -0.3608    1.5432 H   0  0  0  0  0  0  0  0  0  0  0  0
   -0.2643   -1.6432   -0.0414 C   0  0  0  0  0  0  0  0  0  0  0  0
    1.0271    0.5169   -0.2910 C   0  0  0  0  0  0  0  0  0  0  0  0
    2.3459    0.0492   -0.0935 O   0  0  0  0  0  0  0  0  0  0  0  0
   -1.4082    1.4129   -1.3194 H   0  0  0  0  0  0  0  0  0  0  0  0
   -2.3195   -0.0905   -1.1431 H   0  0  0  0  0  0  0  0  0  0  0  0
   -2.9426    1.4045   -0.4565 H   0  0  0  0  0  0  0  0  0  0  0  0
   -1.9937    0.0026    1.3269 H   0  0  0  0  0  0  0  0  0  0  0  0
   -1.0909    1.5052    1.1554 H   0  0  0  0  0  0  0  0  0  0  0  0
   -0.5364   -1.5856   -1.0924 H   0  0  0  0  0  0  0  0  0  0  0  0
   -1.0699   -2.1337    0.4993 H   0  0  0  0  0  0  0  0  0  0  0  0
    0.6248   -2.2623    0.0512 H   0  0  0  0  0  0  0  0  0  0  0  0
    1.0510    1.5642    0.0215 H   0  0  0  0  0  0  0  0  0  0  0  0
    0.7739    0.4778   -1.3580 H   0  0  0  0  0  0  0  0  0  0  0  0
    2.4021   -0.8657   -0.4007 H   0  0  0  0  0  0  0  0  0  0  0  0
  1  2  1  0  0  0  0
  2  3  1  0  0  0  0
  3  4  1  0  0  0  0
  3  5  1  0  0  0  0
  3  6  1  0  0  0  0
  6  7  1  0  0  0  0
  1  8  1  0  0  0  0
  1  9  1  0  0  0  0
  1 10  1  0  0  0  0
  2 11  1  0  0  0  0
  2 12  1  0  0  0  0
  5 13  1  0  0  0  0
  5 14  1  0  0  0  0
  5 15  1  0  0  0  0
  6 16  1  0  0  0  0
  6 17  1  0  0  0  0
  7 18  1  0  0  0  0
M  END
