 xtb: 6.7.1 (edcfbbe)
          04112512143D

 21 20  0     0  0            999 V2000
    1.8871    1.0897    0.1380 C   0  0  0  0  0  0  0  0  0  0  0  0
    1.3770   -0.2443   -0.3998 C   0  0  0  0  0  0  0  0  0  0  0  0
    2.0194   -0.5394   -1.2484 H   0  0  0  0  0  0  0  0  0  0  0  0
   -0.0634   -0.1698   -0.9391 C   0  0  0  0  0  0  0  0  0  0  0  0
   -1.1158    0.4576   -0.0165 C   0  0  0  0  0  0  0  0  0  0  0  0
   -2.4283    0.6212   -0.7839 C   0  0  0  0  0  0  0  0  0  0  0  0
   -1.3477   -0.3788    1.2395 C   0  0  0  0  0  0  0  0  0  0  0  0
    1.5390   -1.2024    0.6346 O   0  0  0  0  0  0  0  0  0  0  0  0
    1.3715    1.3404    1.0601 H   0  0  0  0  0  0  0  0  0  0  0  0
    2.9486    1.0089    0.3558 H   0  0  0  0  0  0  0  0  0  0  0  0
    1.7297    1.8743   -0.5952 H   0  0  0  0  0  0  0  0  0  0  0  0
   -0.0258    0.4103   -1.8637 H   0  0  0  0  0  0  0  0  0  0  0  0
   -0.3864   -1.1816   -1.2003 H   0  0  0  0  0  0  0  0  0  0  0  0
   -0.7723    1.4521    0.2825 H   0  0  0  0  0  0  0  0  0  0  0  0
   -3.1842    1.0744   -0.1473 H   0  0  0  0  0  0  0  0  0  0  0  0
   -2.7972   -0.3467   -1.1172 H   0  0  0  0  0  0  0  0  0  0  0  0
   -2.2897    1.2551   -1.6567 H   0  0  0  0  0  0  0  0  0  0  0  0
   -1.7426   -1.3574    0.9740 H   0  0  0  0  0  0  0  0  0  0  0  0
   -0.4198   -0.5176    1.7871 H   0  0  0  0  0  0  0  0  0  0  0  0
   -2.0654    0.1128    1.8926 H   0  0  0  0  0  0  0  0  0  0  0  0
    1.2763   -2.0718    0.3055 H   0  0  0  0  0  0  0  0  0  0  0  0
  1  2  1  0  0  0  0
  2  3  1  0  0  0  0
  2  4  1  0  0  0  0
  4  5  1  0  0  0  0
  5  6  1  0  0  0  0
  5  7  1  0  0  0  0
  2  8  1  0  0  0  0
  1  9  1  0  0  0  0
  1 10  1  0  0  0  0
  1 11  1  0  0  0  0
  4 12  1  0  0  0  0
  4 13  1  0  0  0  0
  5 14  1  0  0  0  0
  6 15  1  0  0  0  0
  6 16  1  0  0  0  0
  6 17  1  0  0  0  0
  7 18  1  0  0  0  0
  7 19  1  0  0  0  0
  7 20  1  0  0  0  0
  8 21  1  0  0  0  0
M  END
