  15
 
 C         -0.7260850366        1.1836374206       -0.6600008368
 C          0.0079949510       -0.0015893792       -0.0205795186
 C          1.5186927116        0.1510512123       -0.1966590894
 C         -0.4727572226       -1.3151925354       -0.6495365862
 O         -0.2226780557       -0.0190883750        1.3802808784
 H         -1.8031055866        1.0790601938       -0.5347593573
 H         -0.4119713180        2.1115477235       -0.1878224571
 H         -0.5056242231        1.2379496728       -1.7225169639
 H          2.0281864005       -0.6876195400        0.2697829707
 H          1.8517028019        1.0651257379        0.2871981136
 H          1.7778876185        0.1875484096       -1.2507507348
 H          0.0178312313       -2.1574377084       -0.1671467026
 H         -1.5495627230       -1.4260490534       -0.5277019837
 H         -0.2410649869       -1.3348454766       -1.7108464081
 H         -1.1682727218       -0.1156448327        1.5366590939
          15
        -17.73182766
 C          0.7555907079       -1.2555720179       -0.4720562554
 C          0.0015342260        0.0000219142       -0.0172921158
 C         -1.4198347195       -0.0005773752       -0.5789499526
 C          0.7542309872        1.2566397455       -0.4713729159
 O         -0.1366227803       -0.0005253680        1.3964326417
 H          0.8072080628       -1.2950781366       -1.5565146942
 H          1.7705530219       -1.2564607690       -0.0766640495
 H          0.2439110620       -2.1449319311       -0.1117960851
 H         -1.9509441040       -0.8809671767       -0.2280543511
 H         -1.4003389223       -0.0018754724       -1.6647613038
 H         -1.9508822669        0.8806906702       -0.2301655133
 H          1.7695856242        1.2577870412       -0.0769991284
 H          0.8047149488        1.2974767217       -1.5558370551
 H          0.2422460947        2.1452004117       -0.1095509816
 H          0.7420508130        0.0003937225        1.7914195115
