 15

C     -0.465000    -0.065000     0.989000
C      0.561000    -0.399000     2.072000
C      1.627000     0.691000     2.157000
C      1.204000    -1.760000     1.812000
O     -0.108000    -0.445000     3.333000
H     -1.232000    -0.845000     0.925000
H     -0.958000     0.893000     1.183000
H      0.010000    -0.016000     0.003000
H      2.365000     0.455000     2.932000
H      1.182000     1.652000     2.437000
H      2.153000     0.817000     1.205000
H      1.939000    -2.000000     2.588000
H      0.457000    -2.560000     1.784000
H      1.748000    -1.759000     0.860000
H     -0.783000    -1.137000     3.259000
