25
 xtb: 6.7.1 (edcfbbe)
C            2.83983387169271        0.38204332846596        1.26532572264414
C            1.98430125885790       -0.46672550244988        0.36495519893158
C            1.84625066502192       -1.77546252407652        0.60154020239107
C            1.38338933482031        0.23255344231398       -0.84501411856673
H            2.22873601181491        0.42411867420305       -1.52195253872822
C            0.33036130873248       -0.57966635601254       -1.61061493775042
C           -0.95007001862193       -0.81256163403611       -0.79916660617256
C           -1.35685143607548        0.40272778748340       -0.01881223946763
C           -0.57506670249694        1.49602532076927        0.10447977709057
C            0.77670269932654        1.60758070152123       -0.50300562363524
C           -2.64650321481116        0.42673530460548        0.64698479947323
O           -3.45082854975057       -0.50710918890120        0.63793544968956
H            3.53451240435288        0.99903694198570        0.68245132023964
H            2.23131514284858        1.07096452474285        1.86302044222016
H            3.41751028058166       -0.23884812662959        1.95446970234025
H            1.24762354629003       -2.42618242188287       -0.02625997279131
H            2.34828172113323       -2.23849899864166        1.44717025149464
H            0.07638677512181       -0.01336189714565       -2.51431904087135
H            0.74056131625035       -1.53671106958924       -1.94722374072249
H           -1.77003705788881       -1.09238753047542       -1.47136588190390
H           -0.83998184593848       -1.65360991178254       -0.10435520662870
H           -0.95544737582928        2.35023825097176        0.66371053354971
H            0.68184244577248        2.19787516268266       -1.42736327206058
H            1.42840452259624        2.20022269476107        0.14492826912109
H           -2.88452590651862        1.36119870920471        1.19362945050799
