17
 xtb: 6.7.1 (edcfbbe)
C           -2.59473973214560        0.28088235444721        0.90502345573911
C           -1.76063463750688        0.61965941397905       -0.33812631675636
C           -0.52865565306072       -0.23775774601792       -0.37261346564668
O           -0.52279538198502       -1.42407041926015       -0.66743063190106
O            0.57542459617210        0.43193071649095        0.00196275337727
C            1.81736838318531       -0.34239533984023        0.06423784540884
C            2.90541856223047        0.59904549195489        0.51273344140835
H           -2.02989447133177        0.48107071861977        1.82035120322880
H           -3.50136590138748        0.89113073248563        0.92098762123899
H           -2.88874132130527       -0.77241639164206        0.90112660089622
H           -1.48142007920049        1.67541385713888       -0.33682228457190
H           -2.33721520524206        0.40663871949341       -1.24313256647683
H            1.67113667651616       -1.16701464709310        0.76836729792933
H            2.01440414897322       -0.75483184482061       -0.92980154393925
H            2.68653733091465        1.01070125944850        1.50227805278203
H            3.84976265332213        0.05015115018496        0.57057251915537
H            3.03022674387555        1.42289686589934       -0.19593401458353
