 xtb: 6.7.1 (edcfbbe)
          04112512033D

 19 19  0     0  0            999 V2000
    0.7136   -2.8252    0.0497 C   0  0  0  0  0  0  0  0  0  0  0  0
    1.4530   -1.6204   -0.0407 O   0  0  0  0  0  0  0  0  0  0  0  0
    0.8473   -0.4198   -0.0185 C   0  0  0  0  0  0  0  0  0  0  0  0
    1.7211    0.6839    0.0020 C   0  0  0  0  0  0  0  0  0  0  0  0
    1.2668    1.9844    0.0273 C   0  0  0  0  0  0  0  0  0  0  0  0
   -0.0959    2.2370    0.0328 C   0  0  0  0  0  0  0  0  0  0  0  0
   -0.9659    1.1669    0.0074 C   0  0  0  0  0  0  0  0  0  0  0  0
   -0.5259   -0.1582   -0.0171 C   0  0  0  0  0  0  0  0  0  0  0  0
   -1.6167   -1.1916   -0.0864 C   0  0  0  0  0  0  0  0  0  0  0  0
   -2.0942   -1.5905   -1.1241 O   0  0  0  0  0  0  0  0  0  0  0  0
   -2.0348   -1.5647    1.1046 O   0  0  0  0  0  0  0  0  0  0  0  0
   -2.6755    1.4548   -0.0056 Cl  0  0  0  0  0  0  0  0  0  0  0  0
    3.4180    0.3573   -0.0064 Cl  0  0  0  0  0  0  0  0  0  0  0  0
    0.0400   -2.9444   -0.8010 H   0  0  0  0  0  0  0  0  0  0  0  0
    0.1587   -2.8696    0.9886 H   0  0  0  0  0  0  0  0  0  0  0  0
    1.4642   -3.6125    0.0305 H   0  0  0  0  0  0  0  0  0  0  0  0
    1.9747    2.7958    0.0440 H   0  0  0  0  0  0  0  0  0  0  0  0
   -0.4729    3.2448    0.0545 H   0  0  0  0  0  0  0  0  0  0  0  0
   -2.7988   -2.1764    1.0722 H   0  0  0  0  0  0  0  0  0  0  0  0
  1  2  1  0  0  0  0
  2  3  1  0  0  0  0
  3  4  4  0  0  0  0
  4  5  4  0  0  0  0
  5  6  4  0  0  0  0
  6  7  4  0  0  0  0
  3  8  4  0  0  0  0
  7  8  4  0  0  0  0
  8  9  1  0  0  0  0
  9 10  2  0  0  0  0
  9 11  4  0  0  0  0
  7 12  1  0  0  0  0
  4 13  1  0  0  0  0
  1 14  1  0  0  0  0
  1 15  1  0  0  0  0
  1 16  1  0  0  0  0
  5 17  1  0  0  0  0
  6 18  1  0  0  0  0
 11 19  1  0  0  0  0
M  END
