17
 xtb: 6.7.1 (edcfbbe)
C           -3.26644136259279        0.42550337584499        0.13871270547811
C           -1.92415000474531        0.22806276011354       -0.55824810808344
C           -0.77106372020997        0.25831123915236        0.43703017473548
C            0.57737598609067        0.08439588625324       -0.19907695631400
O            0.78275716060698       -0.13541163325876       -1.38096544479643
O            1.56966303213799        0.19587134735101        0.70817154910834
C            2.91689723094813        0.03101297764308        0.19574317378719
H           -3.44591501662337       -0.36246001353347        0.87835070513984
H           -3.30108672969921        1.38836208505618        0.66014377092575
H           -4.08957405881283        0.40409686755492       -0.58189614864795
H           -1.77469883618344        1.01141193258418       -1.30991797002138
H           -1.91752680029693       -0.72818097582662       -1.09296486055846
H           -0.88179103447493       -0.53442610723444        1.18886085858770
H           -0.75827125570429        1.20070707141373        0.99858115932970
H            3.13162064914514        0.79494047530998       -0.55531468700971
H            3.03840653306535       -0.96544692091080       -0.23570662302251
H            3.57060417874842        0.15299207620246        1.05858602132170
