 xtb: 6.7.1 (edcfbbe)
          04112511223D

 21 21  0     0  0            999 V2000
   -3.7514    0.8572   -1.2481 C   0  0  0  0  0  0  0  0  0  0  0  0
   -3.0271    0.1804   -0.1007 C   0  0  0  0  0  0  0  0  0  0  0  0
   -1.6155    0.2663   -0.3474 O   0  0  0  0  0  0  0  0  0  0  0  0
   -0.8063   -0.2839    0.5521 C   0  0  0  0  0  0  0  0  0  0  0  0
   -1.2218   -0.8436    1.5533 O   0  0  0  0  0  0  0  0  0  0  0  0
    0.6247   -0.1467    0.2140 C   0  0  0  0  0  0  0  0  0  0  0  0
    1.0420    0.5043   -0.9459 C   0  0  0  0  0  0  0  0  0  0  0  0
    2.3918    0.6100   -1.2242 C   0  0  0  0  0  0  0  0  0  0  0  0
    3.3281    0.0714   -0.3544 C   0  0  0  0  0  0  0  0  0  0  0  0
    2.9166   -0.5769    0.8003 C   0  0  0  0  0  0  0  0  0  0  0  0
    1.5693   -0.6867    1.0857 C   0  0  0  0  0  0  0  0  0  0  0  0
   -4.8216    0.8020   -1.0784 H   0  0  0  0  0  0  0  0  0  0  0  0
   -3.4519    1.8989   -1.3141 H   0  0  0  0  0  0  0  0  0  0  0  0
   -3.5105    0.3619   -2.1841 H   0  0  0  0  0  0  0  0  0  0  0  0
   -3.2993   -0.8770   -0.0137 H   0  0  0  0  0  0  0  0  0  0  0  0
   -3.2406    0.6646    0.8583 H   0  0  0  0  0  0  0  0  0  0  0  0
    0.3052    0.9193   -1.6146 H   0  0  0  0  0  0  0  0  0  0  0  0
    2.7159    1.1136   -2.1214 H   0  0  0  0  0  0  0  0  0  0  0  0
    4.3805    0.1567   -0.5767 H   0  0  0  0  0  0  0  0  0  0  0  0
    3.6452   -0.9961    1.4765 H   0  0  0  0  0  0  0  0  0  0  0  0
    1.2208   -1.1859    1.9775 H   0  0  0  0  0  0  0  0  0  0  0  0
  1  2  1  0  0  0  0
  2  3  1  0  0  0  0
  3  4  1  0  0  0  0
  4  5  2  0  0  0  0
  4  6  1  0  0  0  0
  6  7  4  0  0  0  0
  7  8  4  0  0  0  0
  8  9  4  0  0  0  0
  9 10  4  0  0  0  0
  6 11  4  0  0  0  0
 10 11  4  0  0  0  0
  1 12  1  0  0  0  0
  1 13  1  0  0  0  0
  1 14  1  0  0  0  0
  2 15  1  0  0  0  0
  2 16  1  0  0  0  0
  7 17  1  0  0  0  0
  8 18  1  0  0  0  0
  9 19  1  0  0  0  0
 10 20  1  0  0  0  0
 11 21  1  0  0  0  0
M  END
