17
 xtb: 6.7.1 (edcfbbe)
C           -2.65874093321679        0.66128930733667        0.82563062210912
C           -2.17785258349018        0.24566756279842       -0.56154073905632
C           -0.88797877842638       -0.54263774975425       -0.53781440791333
O            0.15791431286997        0.33718116173804       -0.01489659077112
C            1.38610005991267       -0.19436779602816        0.10201169824765
O            1.64688196583032       -1.34852543192055       -0.20420222088163
C            2.38375353920211        0.77768173762282        0.64506047606303
H           -3.62056673034969        1.17897864707250        0.76421268589399
H           -2.78692855272754       -0.21462151802558        1.47097330521375
H           -1.94741300503228        1.33677171626863        1.31051499987577
H           -2.05199458457264        1.12360653710752       -1.20617930223578
H           -2.92744883411110       -0.39422333251877       -1.04203222972133
H           -0.96136333835662       -1.41739100413066        0.11735481584503
H           -0.59192348104366       -0.86953835561553       -1.53922136731146
H            2.79450912171016        0.37192369938010        1.57432919693027
H            1.94656281208746        1.75818862342456        0.83161973285688
H            3.20886903917374        0.86683514911481       -0.06757299763638
