 18

C     -1.051000     2.615000     5.466000
C     -1.022000     2.771000     3.954000
C      0.087000     1.929000     3.325000
C      0.111000     2.090000     1.803000
C      1.200000     1.263000     1.185000
C      0.985000     0.296000     0.286000
H     -1.848000     3.221000     5.909000
H     -0.099000     2.937000     5.899000
H     -1.216000     1.571000     5.750000
H     -1.994000     2.474000     3.544000
H     -0.874000     3.829000     3.705000
H      1.056000     2.226000     3.746000
H     -0.064000     0.873000     3.583000
H     -0.867000     1.817000     1.388000
H      0.285000     3.141000     1.544000
H      2.222000     1.478000     1.485000
H      1.817000    -0.264000    -0.128000
H     -0.015000     0.045000    -0.050000
