  21
 
 C         -0.3680000000       -0.3230000000        3.3290000000
 C          1.1200000000       -0.3490000000        3.6470000000
 C          1.8810000000       -1.2100000000        2.6450000000
 S          3.6530000000       -1.2290000000        3.0400000000
 C          4.2090000000       -2.3030000000        1.6970000000
 C          5.7200000000       -2.5160000000        1.7640000000
 C          6.2040000000       -3.4190000000        0.6380000000
 H         -0.9130000000        0.2950000000        4.0490000000
 H         -0.5340000000        0.0920000000        2.3300000000
 H         -0.7910000000       -1.3320000000        3.3520000000
 H          1.2550000000       -0.7370000000        4.6640000000
 H          1.5000000000        0.6790000000        3.6340000000
 H          1.5110000000       -2.2400000000        2.6610000000
 H          1.7570000000       -0.8210000000        1.6290000000
 H          3.9310000000       -1.8460000000        0.7390000000
 H          3.6850000000       -3.2640000000        1.7710000000
 H          6.2430000000       -1.5540000000        1.6920000000
 H          5.9970000000       -2.9700000000        2.7230000000
 H          7.2870000000       -3.5670000000        0.6920000000
 H          5.7230000000       -4.3990000000        0.7060000000
 H          5.9630000000       -2.9890000000       -0.3400000000
