 22

C     -1.086000     0.864000     1.585000
C     -0.272000    -0.255000     1.031000
N      0.901000    -0.517000     1.864000
C      1.751000     0.671000     1.938000
C      2.938000     0.400000     2.783000
C      1.657000    -1.654000     1.340000
C      0.808000    -2.869000     1.323000
H     -1.964000     1.057000     0.958000
H     -1.414000     0.639000     2.606000
H     -0.485000     1.781000     1.617000
H      0.082000    -0.010000     0.025000
H     -0.859000    -1.176000     0.984000
H      2.034000     0.912000     0.917000
H      1.135000     1.465000     2.349000
H      3.588000     1.279000     2.851000
H      2.646000     0.088000     3.792000
H      3.517000    -0.415000     2.331000
H      1.978000    -1.376000     0.340000
H      2.522000    -1.773000     1.986000
H      1.357000    -3.733000     0.933000
H      0.429000    -3.104000     2.324000
H     -0.053000    -2.691000     0.668000
