20
 xtb: 6.7.1 (edcfbbe)
C            2.72610706501831        0.22396274243399        0.09626126612898
C            1.25813881108397        0.04526304690476        0.47767649902332
C            0.33830796226240        0.13121453750547       -0.74136459230763
C           -1.16505905346052       -0.03780226318318       -0.46290012608969
C           -1.71194206396851        1.06398591799407        0.44744401596596
C           -1.49645334595447       -1.41996848417896        0.10372292217732
H            3.38040726308683        0.15964892134973        0.97204632216984
H            3.04297994139548       -0.54722167469059       -0.61535417141104
H            2.89309221396012        1.19918213492543       -0.37550316296223
H            1.12965204245579       -0.92404482305262        0.97491877193223
H            0.97884200979508        0.81209794746706        1.21045993937104
H            0.49563094514544        1.10304940291786       -1.23056372358372
H            0.64752854749596       -0.63393908084860       -1.46749952361726
H           -1.67335179061714        0.05202074972038       -1.43337674523434
H           -1.45664759761444        2.05990194797931        0.06733332857685
H           -1.30878493544934        0.97779264325920        1.46282443194250
H           -2.80329778192051        1.00145927249182        0.52138893557370
H           -1.09258848451635       -1.54362733355195        1.11502937533438
H           -2.58069550807261       -1.56569770758280        0.16382060302955
H           -1.08346112541279       -2.21832602645885       -0.52360245805392
