 xtb: 6.7.1 (edcfbbe)
          04112511563D

 12 11  0     0  0            999 V2000
   -2.7591    0.5654    1.0706 C   0  0  0  0  0  0  0  0  0  0  0  0
   -1.3593    0.8310    0.8064 O   0  0  0  0  0  0  0  0  0  0  0  0
   -0.7598    0.0591   -0.0832 C   0  0  0  0  0  0  0  0  0  0  0  0
    0.7073    0.4756   -0.2440 C   0  0  0  0  0  0  0  0  0  0  0  0
    1.4997    0.3420    1.3288 Cl  0  0  0  0  0  0  0  0  0  0  0  0
    1.5026   -0.5593   -1.4418 Cl  0  0  0  0  0  0  0  0  0  0  0  0
   -0.8537   -1.2752    0.2272 F   0  0  0  0  0  0  0  0  0  0  0  0
   -1.3754    0.1210   -1.3182 F   0  0  0  0  0  0  0  0  0  0  0  0
   -3.3381    0.6864    0.1556 H   0  0  0  0  0  0  0  0  0  0  0  0
   -3.0360    1.3103    1.8084 H   0  0  0  0  0  0  0  0  0  0  0  0
   -2.8788   -0.4417    1.4687 H   0  0  0  0  0  0  0  0  0  0  0  0
    0.7562    1.5140   -0.5790 H   0  0  0  0  0  0  0  0  0  0  0  0
  1  2  1  0  0  0  0
  2  3  1  0  0  0  0
  3  4  1  0  0  0  0
  4  5  1  0  0  0  0
  4  6  1  0  0  0  0
  3  7  1  0  0  0  0
  3  8  1  0  0  0  0
  1  9  1  0  0  0  0
  1 10  1  0  0  0  0
  1 11  1  0  0  0  0
  4 12  1  0  0  0  0
M  END
