  27
 
 C          2.5800000000        3.1400000000       -2.3930000000
 C          2.1180000000        1.7400000000       -2.7630000000
 C          0.9800000000        1.7770000000       -3.7840000000
 C          0.5210000000        0.3650000000       -4.1520000000
 C         -0.6200000000        0.3420000000       -5.1750000000
 C         -1.0790000000       -1.0710000000       -5.5420000000
 C         -2.2160000000       -1.0340000000       -6.5630000000
 C         -2.6810000000       -2.4350000000       -6.9360000000
 O         -3.7340000000       -2.3320000000       -7.8840000000
 H          3.3940000000        3.1040000000       -1.6610000000
 H          1.7580000000        3.7240000000       -1.9640000000
 H          2.9440000000        3.6670000000       -3.2800000000
 H          1.7880000000        1.2190000000       -1.8570000000
 H          2.9670000000        1.1780000000       -3.1700000000
 H          0.1440000000        2.3480000000       -3.3670000000
 H          1.3150000000        2.3020000000       -4.6870000000
 H          0.2130000000       -0.1730000000       -3.2470000000
 H          1.3690000000       -0.1890000000       -4.5750000000
 H         -1.4690000000        0.9200000000       -4.7910000000
 H         -0.2740000000        0.8530000000       -6.0820000000
 H         -1.4210000000       -1.6000000000       -4.6460000000
 H         -0.2350000000       -1.6370000000       -5.9540000000
 H         -1.8950000000       -0.5060000000       -7.4690000000
 H         -3.0640000000       -0.4630000000       -6.1660000000
 H         -1.8640000000       -3.0110000000       -7.3840000000
 H         -3.0540000000       -2.9700000000       -6.0570000000
 H         -4.0060000000       -3.2390000000       -8.1000000000
