  18
 
 C          1.9310000000       -1.0130000000       -1.6030000000
 C          1.8850000000       -1.0360000000       -0.1120000000
 C          2.9210000000       -1.6310000000        0.6080000000
 C          2.8780000000       -1.6520000000        2.0020000000
 C          1.8000000000       -1.0790000000        2.6760000000
 C          0.7640000000       -0.4840000000        1.9550000000
 C          0.8070000000       -0.4630000000        0.5610000000
 C         -0.3890000000        0.1290000000        2.6760000000
 H          2.4400000000       -0.1070000000       -1.9470000000
 H          2.4640000000       -1.8870000000       -1.9910000000
 H          0.9220000000       -1.0340000000       -2.0260000000
 H          3.7660000000       -2.0780000000        0.0920000000
 H          3.6860000000       -2.1120000000        2.5640000000
 H          1.7750000000       -1.0990000000        3.7620000000
 H         -0.0010000000        0.0000000000       -0.0010000000
 H         -0.1880000000        1.1860000000        2.8890000000
 H         -1.3100000000        0.0630000000        2.0830000000
 H         -0.5850000000       -0.3860000000        3.6250000000
