 xtb: 6.7.1 (edcfbbe)
          04112511493D

 21 20  0     0  0            999 V2000
    2.0202   -0.8200   -0.6118 C   0  0  0  0  0  0  0  0  0  0  0  0
    1.2837    0.0534    0.4088 C   0  0  0  0  0  0  0  0  0  0  0  0
    1.9667    0.1976    1.2658 H   0  0  0  0  0  0  0  0  0  0  0  0
    0.0156   -0.6211    0.9757 C   0  0  0  0  0  0  0  0  0  0  0  0
   -1.3254   -0.4270    0.2451 C   0  0  0  0  0  0  0  0  0  0  0  0
   -1.9194    0.9549    0.5148 C   0  0  0  0  0  0  0  0  0  0  0  0
   -1.2479   -0.6847   -1.2565 C   0  0  0  0  0  0  0  0  0  0  0  0
    0.9719    1.3254   -0.1321 O   0  0  0  0  0  0  0  0  0  0  0  0
    2.2443   -1.7886   -0.1747 H   0  0  0  0  0  0  0  0  0  0  0  0
    1.4218   -0.9644   -1.5050 H   0  0  0  0  0  0  0  0  0  0  0  0
    2.9593   -0.3484   -0.8959 H   0  0  0  0  0  0  0  0  0  0  0  0
    0.2293   -1.6896    1.0360 H   0  0  0  0  0  0  0  0  0  0  0  0
   -0.1278   -0.2589    1.9960 H   0  0  0  0  0  0  0  0  0  0  0  0
   -2.0084   -1.1699    0.6780 H   0  0  0  0  0  0  0  0  0  0  0  0
   -1.2598    1.7279    0.1333 H   0  0  0  0  0  0  0  0  0  0  0  0
   -2.0543    1.1112    1.5829 H   0  0  0  0  0  0  0  0  0  0  0  0
   -2.8882    1.0483    0.0290 H   0  0  0  0  0  0  0  0  0  0  0  0
   -0.8295   -1.6677   -1.4591 H   0  0  0  0  0  0  0  0  0  0  0  0
   -2.2453   -0.6429   -1.6894 H   0  0  0  0  0  0  0  0  0  0  0  0
   -0.6386    0.0765   -1.7353 H   0  0  0  0  0  0  0  0  0  0  0  0
    1.7852    1.7350   -0.4549 H   0  0  0  0  0  0  0  0  0  0  0  0
  1  2  1  0  0  0  0
  2  3  1  0  0  0  0
  2  4  1  0  0  0  0
  4  5  1  0  0  0  0
  5  6  1  0  0  0  0
  5  7  1  0  0  0  0
  2  8  1  0  0  0  0
  1  9  1  0  0  0  0
  1 10  1  0  0  0  0
  1 11  1  0  0  0  0
  4 12  1  0  0  0  0
  4 13  1  0  0  0  0
  5 14  1  0  0  0  0
  6 15  1  0  0  0  0
  6 16  1  0  0  0  0
  6 17  1  0  0  0  0
  7 18  1  0  0  0  0
  7 19  1  0  0  0  0
  7 20  1  0  0  0  0
  8 21  1  0  0  0  0
M  END
