 xtb: 6.7.1 (edcfbbe)
          04112512243D

 14 13  0     0  0            999 V2000
   -2.1393   -0.1084   -0.7433 C   0  0  0  0  0  0  0  0  0  0  0  0
   -1.5527   -0.1397    0.6632 C   0  0  0  0  0  0  0  0  0  0  0  0
   -0.2458    0.6463    0.7485 C   0  0  0  0  0  0  0  0  0  0  0  0
    0.8869   -0.0265    0.0214 C   0  0  0  0  0  0  0  0  0  0  0  0
    0.9630   -1.2106   -0.2267 O   0  0  0  0  0  0  0  0  0  0  0  0
    1.8426    0.8305   -0.3133 O   0  0  0  0  0  0  0  0  0  0  0  0
   -1.4502   -0.5680   -1.4487 H   0  0  0  0  0  0  0  0  0  0  0  0
   -2.3276    0.9155   -1.0580 H   0  0  0  0  0  0  0  0  0  0  0  0
   -3.0763   -0.6577   -0.7752 H   0  0  0  0  0  0  0  0  0  0  0  0
   -2.2682    0.2861    1.3672 H   0  0  0  0  0  0  0  0  0  0  0  0
   -1.3593   -1.1746    0.9514 H   0  0  0  0  0  0  0  0  0  0  0  0
   -0.3585    1.6538    0.3470 H   0  0  0  0  0  0  0  0  0  0  0  0
    0.0700    0.7370    1.7908 H   0  0  0  0  0  0  0  0  0  0  0  0
    2.5964    0.4001   -0.7613 H   0  0  0  0  0  0  0  0  0  0  0  0
  1  2  1  0  0  0  0
  2  3  1  0  0  0  0
  3  4  1  0  0  0  0
  4  5  2  0  0  0  0
  4  6  1  0  0  0  0
  1  7  1  0  0  0  0
  1  8  1  0  0  0  0
  1  9  1  0  0  0  0
  2 10  1  0  0  0  0
  2 11  1  0  0  0  0
  3 12  1  0  0  0  0
  3 13  1  0  0  0  0
  6 14  1  0  0  0  0
M  END
