18
 xtb: 6.7.1 (edcfbbe)
C            1.64568122610545       -1.19864064155060       -0.63217198101852
C            1.07114356000713       -0.27794100218034        0.44610352076925
C            1.26397514587533        1.18795547458218        0.05019110498001
C           -0.39046021962809       -0.63355671096786        0.77635816602984
C           -1.43435503373300       -0.28847989940326       -0.28273152427981
O           -1.90737502760666        1.07585755779719       -0.20735701087732
H            2.70291673083410       -0.97425880596981       -0.81126695874149
H            1.11785575146266       -1.07411651155557       -1.58472179129586
H            1.56792708482157       -2.25101814111315       -0.33832429115400
H            1.64424913422785       -0.44943092177112        1.36746123480915
H            2.33002009362231        1.42906527817747       -0.02139808880939
H            0.81614587941933        1.87054272733491        0.78144629797727
H            0.82952925576249        1.39305893201015       -0.93731842920515
H           -0.69086788004229       -0.14499892871589        1.71246089645113
H           -0.44274230219774       -1.71517763299804        0.95808011079046
H           -1.06064562505626       -0.49790006638360       -1.29510356574624
H           -2.32801917982453       -0.90080559874107       -0.13029400134296
H           -1.16347624033359        1.65905692017597       -0.39978827413229
