 xtb: 6.7.1 (edcfbbe)
          04112511243D

 18 17  0     0  0            999 V2000
    1.9585    0.1771    0.7718 C   0  0  0  0  0  0  0  0  0  0  0  0
    1.4318   -0.6782   -0.3768 C   0  0  0  0  0  0  0  0  0  0  0  0
    0.2492   -0.0679   -1.1347 C   0  0  0  0  0  0  0  0  0  0  0  0
   -1.0641    0.1359   -0.3542 C   0  0  0  0  0  0  0  0  0  0  0  0
   -1.8607    0.2933   -1.0930 H   0  0  0  0  0  0  0  0  0  0  0  0
   -1.4397   -1.0602    0.5195 C   0  0  0  0  0  0  0  0  0  0  0  0
   -1.0694    1.3451    0.3866 O   0  0  0  0  0  0  0  0  0  0  0  0
    2.9171   -0.2085    1.1122 H   0  0  0  0  0  0  0  0  0  0  0  0
    1.2810    0.1657    1.6224 H   0  0  0  0  0  0  0  0  0  0  0  0
    2.1014    1.2055    0.4477 H   0  0  0  0  0  0  0  0  0  0  0  0
    2.2375   -0.8162   -1.1019 H   0  0  0  0  0  0  0  0  0  0  0  0
    1.1615   -1.6670   -0.0043 H   0  0  0  0  0  0  0  0  0  0  0  0
    0.5418    0.9072   -1.5321 H   0  0  0  0  0  0  0  0  0  0  0  0
    0.0251   -0.7162   -1.9841 H   0  0  0  0  0  0  0  0  0  0  0  0
   -1.4757   -1.9618   -0.0845 H   0  0  0  0  0  0  0  0  0  0  0  0
   -0.7199   -1.1981    1.3220 H   0  0  0  0  0  0  0  0  0  0  0  0
   -2.4189   -0.8931    0.9618 H   0  0  0  0  0  0  0  0  0  0  0  0
   -0.4126    1.2815    1.0934 H   0  0  0  0  0  0  0  0  0  0  0  0
  1  2  1  0  0  0  0
  2  3  1  0  0  0  0
  3  4  1  0  0  0  0
  4  5  1  0  0  0  0
  4  6  1  0  0  0  0
  4  7  1  0  0  0  0
  1  8  1  0  0  0  0
  1  9  1  0  0  0  0
  1 10  1  0  0  0  0
  2 11  1  0  0  0  0
  2 12  1  0  0  0  0
  3 13  1  0  0  0  0
  3 14  1  0  0  0  0
  6 15  1  0  0  0  0
  6 16  1  0  0  0  0
  6 17  1  0  0  0  0
  7 18  1  0  0  0  0
M  END
