 xtb: 6.7.1 (edcfbbe)
          04112512423D

 17 16  0     0  0            999 V2000
   -2.4882    0.3881    0.9088 C   0  0  0  0  0  0  0  0  0  0  0  0
   -1.7654    0.5731   -0.4289 C   0  0  0  0  0  0  0  0  0  0  0  0
   -0.5222   -0.2781   -0.4437 C   0  0  0  0  0  0  0  0  0  0  0  0
   -0.4425   -1.3808   -0.9470 O   0  0  0  0  0  0  0  0  0  0  0  0
    0.4784    0.3138    0.1897 O   0  0  0  0  0  0  0  0  0  0  0  0
    1.7360   -0.3742    0.3002 C   0  0  0  0  0  0  0  0  0  0  0  0
    2.8478    0.6576    0.3493 C   0  0  0  0  0  0  0  0  0  0  0  0
   -3.3950    0.9851    0.9203 H   0  0  0  0  0  0  0  0  0  0  0  0
   -2.7545   -0.6564    1.0526 H   0  0  0  0  0  0  0  0  0  0  0  0
   -1.8481    0.7031    1.7287 H   0  0  0  0  0  0  0  0  0  0  0  0
   -1.4786    1.6165   -0.5515 H   0  0  0  0  0  0  0  0  0  0  0  0
   -2.4082    0.2588   -1.2502 H   0  0  0  0  0  0  0  0  0  0  0  0
    1.7090   -0.9725    1.2161 H   0  0  0  0  0  0  0  0  0  0  0  0
    1.8392   -1.0484   -0.5562 H   0  0  0  0  0  0  0  0  0  0  0  0
    3.8010    0.1524    0.4648 H   0  0  0  0  0  0  0  0  0  0  0  0
    2.8610    1.2403   -0.5674 H   0  0  0  0  0  0  0  0  0  0  0  0
    2.6926    1.3287    1.1888 H   0  0  0  0  0  0  0  0  0  0  0  0
  1  2  1  0  0  0  0
  2  3  1  0  0  0  0
  3  4  2  0  0  0  0
  3  5  1  0  0  0  0
  5  6  1  0  0  0  0
  6  7  1  0  0  0  0
  1  8  1  0  0  0  0
  1  9  1  0  0  0  0
  1 10  1  0  0  0  0
  2 11  1  0  0  0  0
  2 12  1  0  0  0  0
  6 13  1  0  0  0  0
  6 14  1  0  0  0  0
  7 15  1  0  0  0  0
  7 16  1  0  0  0  0
  7 17  1  0  0  0  0
M  END
