 xtb: 6.7.1 (edcfbbe)
          04112512143D

 21 20  0     0  0            999 V2000
    1.8269   -1.0699   -0.4279 C   0  0  0  0  0  0  0  0  0  0  0  0
    1.2484    0.0455    0.4408 C   0  0  0  0  0  0  0  0  0  0  0  0
    1.0875   -0.3306    1.4581 H   0  0  0  0  0  0  0  0  0  0  0  0
   -0.0663    0.6369   -0.0932 C   0  0  0  0  0  0  0  0  0  0  0  0
   -1.3282   -0.2069    0.1420 C   0  0  0  0  0  0  0  0  0  0  0  0
   -2.5471    0.7129    0.2380 C   0  0  0  0  0  0  0  0  0  0  0  0
   -1.5645   -1.2313   -0.9665 C   0  0  0  0  0  0  0  0  0  0  0  0
    2.2067    1.0829    0.6113 O   0  0  0  0  0  0  0  0  0  0  0  0
    1.8538   -0.7670   -1.4725 H   0  0  0  0  0  0  0  0  0  0  0  0
    2.8403   -1.2901   -0.0989 H   0  0  0  0  0  0  0  0  0  0  0  0
    1.2350   -1.9739   -0.3356 H   0  0  0  0  0  0  0  0  0  0  0  0
   -0.1932    1.5925    0.4226 H   0  0  0  0  0  0  0  0  0  0  0  0
    0.0374    0.8474   -1.1603 H   0  0  0  0  0  0  0  0  0  0  0  0
   -1.2208   -0.7367    1.0951 H   0  0  0  0  0  0  0  0  0  0  0  0
   -3.4521    0.1312    0.3962 H   0  0  0  0  0  0  0  0  0  0  0  0
   -2.6618    1.2815   -0.6823 H   0  0  0  0  0  0  0  0  0  0  0  0
   -2.4414    1.4119    1.0643 H   0  0  0  0  0  0  0  0  0  0  0  0
   -1.6641   -0.7302   -1.9268 H   0  0  0  0  0  0  0  0  0  0  0  0
   -0.7501   -1.9447   -1.0334 H   0  0  0  0  0  0  0  0  0  0  0  0
   -2.4818   -1.7831   -0.7735 H   0  0  0  0  0  0  0  0  0  0  0  0
    2.4292    1.4418   -0.2592 H   0  0  0  0  0  0  0  0  0  0  0  0
  1  2  1  0  0  0  0
  2  3  1  0  0  0  0
  2  4  1  0  0  0  0
  4  5  1  0  0  0  0
  5  6  1  0  0  0  0
  5  7  1  0  0  0  0
  2  8  1  0  0  0  0
  1  9  1  0  0  0  0
  1 10  1  0  0  0  0
  1 11  1  0  0  0  0
  4 12  1  0  0  0  0
  4 13  1  0  0  0  0
  5 14  1  0  0  0  0
  6 15  1  0  0  0  0
  6 16  1  0  0  0  0
  6 17  1  0  0  0  0
  7 18  1  0  0  0  0
  7 19  1  0  0  0  0
  7 20  1  0  0  0  0
  8 21  1  0  0  0  0
M  END
