 xtb: 6.7.1 (edcfbbe)
          04112512013D

 14 13  0     0  0            999 V2000
    1.5409   -0.8781   -0.0640 C   0  0  0  0  0  0  0  0  0  0  0  0
    1.2490    0.5017   -0.1905 O   0  0  0  0  0  0  0  0  0  0  0  0
    0.0556    0.9075    0.4447 C   0  0  0  0  0  0  0  0  0  0  0  0
   -1.2307    0.4762   -0.2737 C   0  0  0  0  0  0  0  0  0  0  0  0
   -1.5868   -0.9050    0.0272 N   0  0  0  0  0  0  0  0  0  0  0  0
    1.6004   -1.1610    0.9926 H   0  0  0  0  0  0  0  0  0  0  0  0
    2.5092   -1.0212   -0.5378 H   0  0  0  0  0  0  0  0  0  0  0  0
    0.7821   -1.4896   -0.5561 H   0  0  0  0  0  0  0  0  0  0  0  0
    0.0407    0.5389    1.4808 H   0  0  0  0  0  0  0  0  0  0  0  0
    0.1095    1.9985    0.4544 H   0  0  0  0  0  0  0  0  0  0  0  0
   -2.0212    1.1918    0.0078 H   0  0  0  0  0  0  0  0  0  0  0  0
   -1.0674    0.5570   -1.3516 H   0  0  0  0  0  0  0  0  0  0  0  0
   -2.4394   -1.1500   -0.4636 H   0  0  0  0  0  0  0  0  0  0  0  0
   -1.7682   -1.0012    1.0212 H   0  0  0  0  0  0  0  0  0  0  0  0
  1  2  1  0  0  0  0
  2  3  1  0  0  0  0
  3  4  1  0  0  0  0
  4  5  1  0  0  0  0
  1  6  1  0  0  0  0
  1  7  1  0  0  0  0
  1  8  1  0  0  0  0
  3  9  1  0  0  0  0
  3 10  1  0  0  0  0
  4 11  1  0  0  0  0
  4 12  1  0  0  0  0
  5 13  1  0  0  0  0
  5 14  1  0  0  0  0
M  END
