  8
 
 C         -0.2690000000        0.5220000000        0.4900000000
 C          0.2380000000       -0.5480000000       -0.4510000000
 Br         1.3410000000        0.2700000000       -1.8320000000
 Cl        -1.2790000000       -0.2090000000        1.7580000000
 H          0.5550000000        1.0470000000        0.9830000000
 H         -0.8790000000        1.2640000000       -0.0350000000
 H         -0.5760000000       -1.0640000000       -0.9690000000
 H          0.8700000000       -1.2820000000        0.0570000000
