21
 xtb: 6.7.1 (edcfbbe)
C            2.18932074910690       -0.93729073508950       -0.60587512661408
C            1.20510317679071       -0.14833770654378        0.23772610954982
C            1.75193048579862        1.21824995470850        0.62695150223282
O            0.00012767661864        0.00010347957750       -0.54823488491017
C           -1.20518606664914        0.14867253954508        0.23719581891166
C           -2.18881383732106        0.93809426725123       -0.60665275332901
C           -1.75251034667620       -1.21787840431754        0.62583950963205
H            2.40183075900223       -0.40553056706080       -1.53995581106481
H            3.13143214394629       -1.06765833606613       -0.06496307088804
H            1.78947078122914       -1.92628234874562       -0.84957339923726
H            0.96845169477725       -0.72068582228560        1.14636566795438
H            1.01397927664696        1.79724870619938        1.19108393513262
H            2.02910507207448        1.78349042677201       -0.26975665311702
H            2.64229590867561        1.10580050406031        1.25445657275417
H           -0.96881222042387        0.72073144085374        1.14608307510438
H           -3.13107352801510        1.06873075932105       -0.06606295088049
H           -1.78851282710129        1.92697642936671       -0.85005962344152
H           -2.40117746641807        0.40655056740107       -1.54088724440867
H           -2.64295498733926       -1.10538493992289        1.25321934547268
H           -1.01482389148518       -1.79727877350175        1.18990162199168
H           -2.02968574695712       -1.78272590739168       -0.27110825397816
