 xtb: 6.7.1 (edcfbbe)
          04112511493D

 21 20  0     0  0            999 V2000
    1.9441   -0.7626   -0.8239 C   0  0  0  0  0  0  0  0  0  0  0  0
    1.2034   -0.1294    0.3532 C   0  0  0  0  0  0  0  0  0  0  0  0
    0.9111   -0.9174    1.0671 H   0  0  0  0  0  0  0  0  0  0  0  0
   -0.0520    0.6396   -0.0891 C   0  0  0  0  0  0  0  0  0  0  0  0
   -1.3762   -0.0754    0.1972 C   0  0  0  0  0  0  0  0  0  0  0  0
   -2.5412    0.8650   -0.1086 C   0  0  0  0  0  0  0  0  0  0  0  0
   -1.5197   -1.3610   -0.6142 C   0  0  0  0  0  0  0  0  0  0  0  0
    2.0382    0.8017    1.0322 O   0  0  0  0  0  0  0  0  0  0  0  0
    2.3123    0.0199   -1.4837 H   0  0  0  0  0  0  0  0  0  0  0  0
    2.7892   -1.3527   -0.4750 H   0  0  0  0  0  0  0  0  0  0  0  0
    1.2770   -1.4101   -1.3833 H   0  0  0  0  0  0  0  0  0  0  0  0
   -0.0411    1.5877    0.4532 H   0  0  0  0  0  0  0  0  0  0  0  0
    0.0156    0.8686   -1.1537 H   0  0  0  0  0  0  0  0  0  0  0  0
   -1.4069   -0.3292    1.2631 H   0  0  0  0  0  0  0  0  0  0  0  0
   -2.5373    1.1403   -1.1609 H   0  0  0  0  0  0  0  0  0  0  0  0
   -2.4677    1.7734    0.4844 H   0  0  0  0  0  0  0  0  0  0  0  0
   -3.4892    0.3828    0.1171 H   0  0  0  0  0  0  0  0  0  0  0  0
   -2.4888   -1.8168   -0.4246 H   0  0  0  0  0  0  0  0  0  0  0  0
   -1.4447   -1.1462   -1.6779 H   0  0  0  0  0  0  0  0  0  0  0  0
   -0.7499   -2.0799   -0.3472 H   0  0  0  0  0  0  0  0  0  0  0  0
    2.8695    0.3701    1.2711 H   0  0  0  0  0  0  0  0  0  0  0  0
  1  2  1  0  0  0  0
  2  3  1  0  0  0  0
  2  4  1  0  0  0  0
  4  5  1  0  0  0  0
  5  6  1  0  0  0  0
  5  7  1  0  0  0  0
  2  8  1  0  0  0  0
  1  9  1  0  0  0  0
  1 10  1  0  0  0  0
  1 11  1  0  0  0  0
  4 12  1  0  0  0  0
  4 13  1  0  0  0  0
  5 14  1  0  0  0  0
  6 15  1  0  0  0  0
  6 16  1  0  0  0  0
  6 17  1  0  0  0  0
  7 18  1  0  0  0  0
  7 19  1  0  0  0  0
  7 20  1  0  0  0  0
  8 21  1  0  0  0  0
M  END
