 xtb: 6.7.1 (edcfbbe)
          04112512233D

 20 19  0     0  0            999 V2000
   -1.5844    0.4228    1.2580 C   0  0  0  0  0  0  0  0  0  0  0  0
   -1.6558   -0.5807    0.1097 C   0  0  0  0  0  0  0  0  0  0  0  0
   -2.9802   -0.4575   -0.6387 C   0  0  0  0  0  0  0  0  0  0  0  0
   -0.4981   -0.3672   -0.8702 C   0  0  0  0  0  0  0  0  0  0  0  0
    0.7572   -0.6719   -0.2503 O   0  0  0  0  0  0  0  0  0  0  0  0
    1.6190    0.3081   -0.0051 C   0  0  0  0  0  0  0  0  0  0  0  0
    1.4310    1.4681   -0.3100 O   0  0  0  0  0  0  0  0  0  0  0  0
    2.8433   -0.2041    0.6941 C   0  0  0  0  0  0  0  0  0  0  0  0
   -1.6399    1.4406    0.8764 H   0  0  0  0  0  0  0  0  0  0  0  0
   -0.6505    0.3160    1.8063 H   0  0  0  0  0  0  0  0  0  0  0  0
   -2.4071    0.2644    1.9497 H   0  0  0  0  0  0  0  0  0  0  0  0
   -1.5629   -1.5922    0.5179 H   0  0  0  0  0  0  0  0  0  0  0  0
   -3.0420   -1.1923   -1.4368 H   0  0  0  0  0  0  0  0  0  0  0  0
   -3.0764    0.5349   -1.0726 H   0  0  0  0  0  0  0  0  0  0  0  0
   -3.8096   -0.6173    0.0442 H   0  0  0  0  0  0  0  0  0  0  0  0
   -0.5851   -1.0475   -1.7205 H   0  0  0  0  0  0  0  0  0  0  0  0
   -0.4744    0.6684   -1.2241 H   0  0  0  0  0  0  0  0  0  0  0  0
    2.9164   -1.2793    0.5735 H   0  0  0  0  0  0  0  0  0  0  0  0
    2.7616    0.0368    1.7518 H   0  0  0  0  0  0  0  0  0  0  0  0
    3.7218    0.2976    0.3004 H   0  0  0  0  0  0  0  0  0  0  0  0
  1  2  1  0  0  0  0
  2  3  1  0  0  0  0
  2  4  1  0  0  0  0
  4  5  1  0  0  0  0
  5  6  1  0  0  0  0
  6  7  2  0  0  0  0
  6  8  1  0  0  0  0
  1  9  1  0  0  0  0
  1 10  1  0  0  0  0
  1 11  1  0  0  0  0
  2 12  1  0  0  0  0
  3 13  1  0  0  0  0
  3 14  1  0  0  0  0
  3 15  1  0  0  0  0
  4 16  1  0  0  0  0
  4 17  1  0  0  0  0
  8 18  1  0  0  0  0
  8 19  1  0  0  0  0
  8 20  1  0  0  0  0
M  END
