  14
 
 C          1.9377657414       -0.1380961527       -0.0018892893
 C          0.5620003761        0.5168125870       -0.0003399352
 C         -0.5621060982       -0.5167086964       -0.0003570969
 C         -1.9378902225        0.1381881207       -0.0019691821
 H          2.7218024893        0.6156083869        0.0006059510
 H          2.0618863121       -0.7658102594        0.8780054505
 H          2.0624743832       -0.7605472818       -0.8853531847
 H          0.4646159997        1.1536949469        0.8819551738
 H          0.4631106204        1.1554230764       -0.8812421903
 H         -0.4631708724       -1.1553658716       -0.8812245309
 H         -0.4647709826       -1.1535866459        0.8819775596
 H         -2.7218901285       -0.6155259508        0.0005331820
 H         -2.0625730382        0.7606132943       -0.8854672051
 H         -2.0620211784        0.7659584410        0.8778887790
          14
        -13.66512772
 C          1.9379914920       -0.1336286069        0.0001053363
 C          0.5606558952        0.5180497271       -0.0001192778
 C         -0.5606823604       -0.5181159164       -0.0001272846
 C         -1.9379664532        0.1336801781        0.0001058086
 H          2.0642548264       -0.7587485564        0.8816627109
 H          2.0645339721       -0.7581764073       -0.8817534928
 H          2.7203280136        0.6220451404        0.0004784240
 H          0.4607773575        1.1556661028        0.8814884668
 H          0.4607054921        1.1555968039       -0.8817639537
 H         -0.4607960512       -1.1556850623       -0.8817825165
 H         -0.4606971336       -1.1556861631        0.8815064866
 H         -2.7202707264       -0.6218355861        0.0003660922
 H         -2.0646295887        0.7584491779       -0.8815680688
 H         -2.0641891641        0.7585487524        0.8817879169
