 xtb: 6.7.1 (edcfbbe)
          04112511403D

 22 23  0     0  0            999 V2000
   -3.2356    0.9449   -0.1503 C   0  0  0  0  0  0  0  0  0  0  0  0
   -2.4145    1.0705    0.9582 C   0  0  0  0  0  0  0  0  0  0  0  0
   -1.2796    0.2881    1.0720 C   0  0  0  0  0  0  0  0  0  0  0  0
   -0.9532   -0.6266    0.0782 C   0  0  0  0  0  0  0  0  0  0  0  0
   -1.7769   -0.7432   -1.0323 C   0  0  0  0  0  0  0  0  0  0  0  0
   -2.9156    0.0364   -1.1444 C   0  0  0  0  0  0  0  0  0  0  0  0
    0.3064   -1.4520    0.1990 C   0  0  0  0  0  0  0  0  0  0  0  0
    1.4761   -0.6099    0.1037 N   0  0  0  0  0  0  0  0  0  0  0  0
    2.2464   -0.1542    1.1330 C   0  0  0  0  0  0  0  0  0  0  0  0
    3.1844    0.6632    0.5719 C   0  0  0  0  0  0  0  0  0  0  0  0
    3.0013    0.7248   -0.7756 N   0  0  0  0  0  0  0  0  0  0  0  0
    1.9698   -0.0432   -1.0174 C   0  0  0  0  0  0  0  0  0  0  0  0
   -4.1218    1.5546   -0.2386 H   0  0  0  0  0  0  0  0  0  0  0  0
   -2.6590    1.7785    1.7355 H   0  0  0  0  0  0  0  0  0  0  0  0
   -0.6394    0.3906    1.9361 H   0  0  0  0  0  0  0  0  0  0  0  0
   -1.5300   -1.4488   -1.8120 H   0  0  0  0  0  0  0  0  0  0  0  0
   -3.5513   -0.0638   -2.0110 H   0  0  0  0  0  0  0  0  0  0  0  0
    0.3350   -1.9607    1.1655 H   0  0  0  0  0  0  0  0  0  0  0  0
    0.3441   -2.1979   -0.5987 H   0  0  0  0  0  0  0  0  0  0  0  0
    2.0802   -0.4493    2.1480 H   0  0  0  0  0  0  0  0  0  0  0  0
    3.9776    1.2077    1.0435 H   0  0  0  0  0  0  0  0  0  0  0  0
    1.5572   -0.2151   -1.9910 H   0  0  0  0  0  0  0  0  0  0  0  0
  1  2  4  0  0  0  0
  2  3  4  0  0  0  0
  3  4  4  0  0  0  0
  4  5  4  0  0  0  0
  1  6  4  0  0  0  0
  5  6  4  0  0  0  0
  4  7  1  0  0  0  0
  7  8  1  0  0  0  0
  8  9  4  0  0  0  0
  9 10  2  0  0  0  0
 10 11  4  0  0  0  0
  8 12  4  0  0  0  0
 11 12  2  0  0  0  0
  1 13  1  0  0  0  0
  2 14  1  0  0  0  0
  3 15  1  0  0  0  0
  5 16  1  0  0  0  0
  6 17  1  0  0  0  0
  7 18  1  0  0  0  0
  7 19  1  0  0  0  0
  9 20  1  0  0  0  0
 10 21  1  0  0  0  0
 12 22  1  0  0  0  0
M  END
