 xtb: 6.7.1 (edcfbbe)
          04112511533D

 15 14  0     0  0            999 V2000
   -2.2066   -0.8247    0.0242 C   0  0  0  0  0  0  0  0  0  0  0  0
   -1.5433    0.4306    0.5579 C   0  0  0  0  0  0  0  0  0  0  0  0
    0.0613    0.7903   -0.2411 S   0  0  0  0  0  0  0  0  0  0  0  0
    1.0979   -0.5426    0.4778 C   0  0  0  0  0  0  0  0  0  0  0  0
    2.5645   -0.2512    0.2266 C   0  0  0  0  0  0  0  0  0  0  0  0
   -2.3162   -0.7609   -1.0557 H   0  0  0  0  0  0  0  0  0  0  0  0
   -1.6186   -1.7075    0.2636 H   0  0  0  0  0  0  0  0  0  0  0  0
   -3.1918   -0.9347    0.4712 H   0  0  0  0  0  0  0  0  0  0  0  0
   -1.3638    0.3696    1.6315 H   0  0  0  0  0  0  0  0  0  0  0  0
   -2.1481    1.3114    0.3462 H   0  0  0  0  0  0  0  0  0  0  0  0
    0.8789   -0.5729    1.5453 H   0  0  0  0  0  0  0  0  0  0  0  0
    0.8020   -1.4820    0.0114 H   0  0  0  0  0  0  0  0  0  0  0  0
    2.7602   -0.1937   -0.8414 H   0  0  0  0  0  0  0  0  0  0  0  0
    2.8439    0.6976    0.6782 H   0  0  0  0  0  0  0  0  0  0  0  0
    3.1757   -1.0415    0.6555 H   0  0  0  0  0  0  0  0  0  0  0  0
  1  2  1  0  0  0  0
  2  3  1  0  0  0  0
  3  4  1  0  0  0  0
  4  5  1  0  0  0  0
  1  6  1  0  0  0  0
  1  7  1  0  0  0  0
  1  8  1  0  0  0  0
  2  9  1  0  0  0  0
  2 10  1  0  0  0  0
  4 11  1  0  0  0  0
  4 12  1  0  0  0  0
  5 13  1  0  0  0  0
  5 14  1  0  0  0  0
  5 15  1  0  0  0  0
M  END
