 xtb: 6.7.1 (edcfbbe)
          04112512423D

 17 16  0     0  0            999 V2000
   -2.4589    1.0412   -0.2995 C   0  0  0  0  0  0  0  0  0  0  0  0
   -1.7992    0.0163    0.6285 C   0  0  0  0  0  0  0  0  0  0  0  0
   -0.5448   -0.5025   -0.0242 C   0  0  0  0  0  0  0  0  0  0  0  0
   -0.4927   -1.4622   -0.7670 O   0  0  0  0  0  0  0  0  0  0  0  0
    0.5102    0.2373    0.2814 O   0  0  0  0  0  0  0  0  0  0  0  0
    1.7740   -0.1133   -0.3077 C   0  0  0  0  0  0  0  0  0  0  0  0
    2.8568    0.7043    0.3694 C   0  0  0  0  0  0  0  0  0  0  0  0
   -1.7937    1.8850   -0.4637 H   0  0  0  0  0  0  0  0  0  0  0  0
   -2.6904    0.5851   -1.2592 H   0  0  0  0  0  0  0  0  0  0  0  0
   -3.3799    1.4013    0.1488 H   0  0  0  0  0  0  0  0  0  0  0  0
   -2.4742   -0.8223    0.7952 H   0  0  0  0  0  0  0  0  0  0  0  0
   -1.5365    0.4859    1.5750 H   0  0  0  0  0  0  0  0  0  0  0  0
    1.9302   -1.1891   -0.1762 H   0  0  0  0  0  0  0  0  0  0  0  0
    1.7217    0.0949   -1.3813 H   0  0  0  0  0  0  0  0  0  0  0  0
    2.6593    1.7638    0.2370 H   0  0  0  0  0  0  0  0  0  0  0  0
    2.8819    0.4828    1.4323 H   0  0  0  0  0  0  0  0  0  0  0  0
    3.8183    0.4605   -0.0701 H   0  0  0  0  0  0  0  0  0  0  0  0
  1  2  1  0  0  0  0
  2  3  1  0  0  0  0
  3  4  2  0  0  0  0
  3  5  1  0  0  0  0
  5  6  1  0  0  0  0
  6  7  1  0  0  0  0
  1  8  1  0  0  0  0
  1  9  1  0  0  0  0
  1 10  1  0  0  0  0
  2 11  1  0  0  0  0
  2 12  1  0  0  0  0
  6 13  1  0  0  0  0
  6 14  1  0  0  0  0
  7 15  1  0  0  0  0
  7 16  1  0  0  0  0
  7 17  1  0  0  0  0
M  END
