27
 xtb: 6.7.1 (edcfbbe)
C           -2.94539289625984       -0.60314222071664        2.03034687630434
C           -3.03510211120207       -1.42799558771364        0.75065734135559
C           -2.71984281487845       -0.62281388570310       -0.51427879032465
H           -3.47423999187068        0.16074260367026       -0.59750188468708
C           -2.76892926309929       -1.45083643931418       -1.79258953421794
N           -1.43828995761124        0.14167926920071       -0.37868227743071
C           -0.22519693754447       -0.56486018953714       -0.23995772181238
O           -0.20742079436247       -1.79391609256816       -0.27920033611710
C            0.94809610420986        0.25795295393549       -0.05783115682944
C            0.88145672765606        1.61290608029776        0.04214920565541
N           -0.35330860397812        2.18934128691138       -0.05633869712494
C           -1.54158356894283        1.51911414100474       -0.25065395612671
O           -2.60157787884417        2.14342169542078       -0.31300429398778
C            2.03599587884263        2.52213262101515        0.27059245919389
Br           2.61140021508912       -0.63809954090341        0.08683004282348
H           -3.26891511192942       -1.19388087769621        2.89291170981946
H           -1.91823265403069       -0.27367268791746        2.22449990842538
H           -3.58050398790444        0.28804192886159        1.97418405870033
H           -2.38456013762784       -2.30466378468730        0.81707808335013
H           -4.05843154001069       -1.80004969162978        0.62045537923772
H           -3.79483630822937       -1.80833548841897       -1.92584958206744
H           -2.51184124175349       -0.84308585384410       -2.66492646553016
H           -2.10689520064036       -2.31667285857649       -1.75529072575603
H           -0.43446267514741        3.19569734626776        0.02437547101657
H            1.73974230833442        3.56910509713619        0.18533455808887
H            2.83222016395344        2.31575224261883       -0.44876208011236
H            2.44754987415328        2.35508060755870        1.27168438403933
