 xtb: 6.7.1 (edcfbbe)
          04112511513D

 19 19  0     0  0            999 V2000
    0.9045   -2.6158    0.8765 C   0  0  0  0  0  0  0  0  0  0  0  0
    1.2584   -1.6925   -0.1487 O   0  0  0  0  0  0  0  0  0  0  0  0
    0.7787   -0.4236   -0.0521 C   0  0  0  0  0  0  0  0  0  0  0  0
    1.6936    0.6334   -0.0176 C   0  0  0  0  0  0  0  0  0  0  0  0
    1.2743    1.9505    0.0572 C   0  0  0  0  0  0  0  0  0  0  0  0
   -0.0761    2.2414    0.1154 C   0  0  0  0  0  0  0  0  0  0  0  0
   -0.9974    1.2081    0.0702 C   0  0  0  0  0  0  0  0  0  0  0  0
   -0.5906   -0.1208   -0.0305 C   0  0  0  0  0  0  0  0  0  0  0  0
   -1.6139   -1.2034   -0.1751 C   0  0  0  0  0  0  0  0  0  0  0  0
   -2.5329   -1.3852    0.5937 O   0  0  0  0  0  0  0  0  0  0  0  0
   -1.4135   -1.9256   -1.2579 O   0  0  0  0  0  0  0  0  0  0  0  0
   -2.6870    1.5799    0.0940 Cl  0  0  0  0  0  0  0  0  0  0  0  0
    3.3783    0.2602   -0.0775 Cl  0  0  0  0  0  0  0  0  0  0  0  0
    1.1571   -3.5977    0.4850 H   0  0  0  0  0  0  0  0  0  0  0  0
   -0.1569   -2.5729    1.1252 H   0  0  0  0  0  0  0  0  0  0  0  0
    1.4899   -2.4110    1.7770 H   0  0  0  0  0  0  0  0  0  0  0  0
    2.0058    2.7409    0.0829 H   0  0  0  0  0  0  0  0  0  0  0  0
   -0.4179    3.2598    0.1860 H   0  0  0  0  0  0  0  0  0  0  0  0
   -2.0901   -2.6205   -1.3910 H   0  0  0  0  0  0  0  0  0  0  0  0
  1  2  1  0  0  0  0
  2  3  1  0  0  0  0
  3  4  4  0  0  0  0
  4  5  4  0  0  0  0
  5  6  4  0  0  0  0
  6  7  4  0  0  0  0
  3  8  4  0  0  0  0
  7  8  4  0  0  0  0
  8  9  1  0  0  0  0
  9 10  2  0  0  0  0
  9 11  1  0  0  0  0
  7 12  1  0  0  0  0
  4 13  1  0  0  0  0
  1 14  1  0  0  0  0
  1 15  1  0  0  0  0
  1 16  1  0  0  0  0
  5 17  1  0  0  0  0
  6 18  1  0  0  0  0
 11 19  1  0  0  0  0
M  END
