 xtb: 6.7.1 (edcfbbe)
          04112512403D

 18 17  0     0  0            999 V2000
   -2.5139    0.6559    0.1511 C   0  0  0  0  0  0  0  0  0  0  0  0
   -1.1609    0.7196   -0.5493 C   0  0  0  0  0  0  0  0  0  0  0  0
   -0.0445   -0.0027    0.2136 C   0  0  0  0  0  0  0  0  0  0  0  0
   -0.0155    0.3760    1.2413 H   0  0  0  0  0  0  0  0  0  0  0  0
   -0.2709   -1.5133    0.2478 C   0  0  0  0  0  0  0  0  0  0  0  0
    1.3076    0.3279   -0.4384 C   0  0  0  0  0  0  0  0  0  0  0  0
    2.4251   -0.0714    0.3256 O   0  0  0  0  0  0  0  0  0  0  0  0
   -2.8909   -0.3622    0.1909 H   0  0  0  0  0  0  0  0  0  0  0  0
   -2.4338    1.0357    1.1670 H   0  0  0  0  0  0  0  0  0  0  0  0
   -3.2389    1.2627   -0.3856 H   0  0  0  0  0  0  0  0  0  0  0  0
   -0.8787    1.7684   -0.6669 H   0  0  0  0  0  0  0  0  0  0  0  0
   -1.2466    0.2877   -1.5488 H   0  0  0  0  0  0  0  0  0  0  0  0
   -1.2154   -1.7465    0.7301 H   0  0  0  0  0  0  0  0  0  0  0  0
    0.5153   -2.0108    0.8108 H   0  0  0  0  0  0  0  0  0  0  0  0
   -0.2885   -1.9159   -0.7632 H   0  0  0  0  0  0  0  0  0  0  0  0
    1.4126    1.4111   -0.5417 H   0  0  0  0  0  0  0  0  0  0  0  0
    1.3538   -0.1181   -1.4416 H   0  0  0  0  0  0  0  0  0  0  0  0
    2.4286   -1.0355    0.3978 H   0  0  0  0  0  0  0  0  0  0  0  0
  1  2  1  0  0  0  0
  2  3  1  0  0  0  0
  3  4  1  0  0  0  0
  3  5  1  0  0  0  0
  3  6  1  0  0  0  0
  6  7  1  0  0  0  0
  1  8  1  0  0  0  0
  1  9  1  0  0  0  0
  1 10  1  0  0  0  0
  2 11  1  0  0  0  0
  2 12  1  0  0  0  0
  5 13  1  0  0  0  0
  5 14  1  0  0  0  0
  5 15  1  0  0  0  0
  6 16  1  0  0  0  0
  6 17  1  0  0  0  0
  7 18  1  0  0  0  0
M  END
