 xtb: 6.7.1 (edcfbbe)
          04112512333D

 21 20  0     0  0            999 V2000
    2.0552   -0.9512    0.1799 C   0  0  0  0  0  0  0  0  0  0  0  0
    1.1896    0.0606    0.9248 C   0  0  0  0  0  0  0  0  0  0  0  0
    0.1665    0.8145    0.0545 C   0  0  0  0  0  0  0  0  0  0  0  0
   -0.0521    1.7642    0.5762 H   0  0  0  0  0  0  0  0  0  0  0  0
   -1.1986    0.1184   -0.1543 C   0  0  0  0  0  0  0  0  0  0  0  0
   -1.0868   -1.2623   -0.7943 C   0  0  0  0  0  0  0  0  0  0  0  0
   -1.9982    0.0494    1.1448 C   0  0  0  0  0  0  0  0  0  0  0  0
    0.7844    1.1147   -1.1861 O   0  0  0  0  0  0  0  0  0  0  0  0
    1.4822   -1.8110   -0.1493 H   0  0  0  0  0  0  0  0  0  0  0  0
    2.8498   -1.2980    0.8366 H   0  0  0  0  0  0  0  0  0  0  0  0
    2.5028   -0.4807   -0.6911 H   0  0  0  0  0  0  0  0  0  0  0  0
    0.6626   -0.4263    1.7445 H   0  0  0  0  0  0  0  0  0  0  0  0
    1.8556    0.8101    1.3579 H   0  0  0  0  0  0  0  0  0  0  0  0
   -1.7534    0.7633   -0.8496 H   0  0  0  0  0  0  0  0  0  0  0  0
   -0.7281   -1.9918   -0.0736 H   0  0  0  0  0  0  0  0  0  0  0  0
   -2.0629   -1.5873   -1.1478 H   0  0  0  0  0  0  0  0  0  0  0  0
   -0.4038   -1.2317   -1.6395 H   0  0  0  0  0  0  0  0  0  0  0  0
   -2.9981   -0.3257    0.9416 H   0  0  0  0  0  0  0  0  0  0  0  0
   -2.0840    1.0340    1.5988 H   0  0  0  0  0  0  0  0  0  0  0  0
   -1.5253   -0.6193    1.8593 H   0  0  0  0  0  0  0  0  0  0  0  0
    0.1904    1.6672   -1.7102 H   0  0  0  0  0  0  0  0  0  0  0  0
  1  2  1  0  0  0  0
  2  3  1  0  0  0  0
  3  4  1  0  0  0  0
  3  5  1  0  0  0  0
  5  6  1  0  0  0  0
  5  7  1  0  0  0  0
  3  8  1  0  0  0  0
  1  9  1  0  0  0  0
  1 10  1  0  0  0  0
  1 11  1  0  0  0  0
  2 12  1  0  0  0  0
  2 13  1  0  0  0  0
  5 14  1  0  0  0  0
  6 15  1  0  0  0  0
  6 16  1  0  0  0  0
  6 17  1  0  0  0  0
  7 18  1  0  0  0  0
  7 19  1  0  0  0  0
  7 20  1  0  0  0  0
  8 21  1  0  0  0  0
M  END
