  8
 
 C          0.3500000000       -1.0340000000        0.0710000000
 O          1.5790000000       -1.1920000000       -0.6450000000
 C          1.5120000000       -0.9360000000       -1.9770000000
 O          0.5330000000       -0.5920000000       -2.6210000000
 H          0.5110000000       -1.2620000000        1.1280000000
 H         -0.4050000000       -1.7060000000       -0.3460000000
 H          0.0110000000       -0.0010000000       -0.0280000000
 H          2.5110000000       -1.0900000000       -2.4120000000
