23
 xtb: 6.7.1 (edcfbbe)
C            1.75553282341264        0.83943565827339        0.95773070094527
C            1.36371106760733        0.59050643028240       -0.49906233489565
C            0.24840802971454       -0.43860882016000       -0.77185304883573
H            0.12037262152680       -0.42858288939096       -1.86482592699269
C            0.68986872350623       -1.85433246886190       -0.39628175769956
C           -1.15694287924025       -0.10063818056122       -0.20748520378745
C           -1.36257945536634       -0.40745797870155        1.27974181867856
C           -1.56358048496688        1.34043764734626       -0.51745699188793
H            0.98585288383167        1.39648357605048        1.49874549098276
H            1.93980760778168       -0.09340782045474        1.50077265900519
H            2.67612095583435        1.43147144042898        1.00386812732867
H            2.25171190084875        0.24301955278785       -1.04403925784582
H            1.08870247835716        1.54760516630927       -0.95842871937903
H           -0.09041140251461       -2.58607959792600       -0.63572851823718
H            1.59271643432000       -2.13489519492592       -0.95015464363669
H            0.91442589825544       -1.94954595747140        0.67070741753387
H           -1.84893497498880       -0.75874908416799       -0.75428936107995
H           -0.72714171482096        0.20722300597277        1.92317531226244
H           -1.16208780747273       -1.45789115724050        1.51139297700481
H           -2.40353815380553       -0.20505593390280        1.55722074207876
H           -2.62143049647086        1.50198874039313       -0.28300495110012
H           -1.41392469401128        1.58095720340392       -1.57624431466152
H           -0.98219484243267        2.05547779459962        0.07569756834422
