 xtb: 6.7.1 (edcfbbe)
          04112512403D

 18 17  0     0  0            999 V2000
   -1.7442    1.4706    0.2962 C   0  0  0  0  0  0  0  0  0  0  0  0
   -1.2044    0.2688   -0.4727 C   0  0  0  0  0  0  0  0  0  0  0  0
   -0.2487   -0.6098    0.3452 C   0  0  0  0  0  0  0  0  0  0  0  0
   -0.7458   -0.8787    1.2834 H   0  0  0  0  0  0  0  0  0  0  0  0
    0.0872   -1.8875   -0.4230 C   0  0  0  0  0  0  0  0  0  0  0  0
    1.0505    0.1180    0.7296 C   0  0  0  0  0  0  0  0  0  0  0  0
    1.8458    0.5042   -0.3708 O   0  0  0  0  0  0  0  0  0  0  0  0
   -2.4700    2.0059   -0.3112 H   0  0  0  0  0  0  0  0  0  0  0  0
   -2.2360    1.1445    1.2099 H   0  0  0  0  0  0  0  0  0  0  0  0
   -0.9520    2.1645    0.5649 H   0  0  0  0  0  0  0  0  0  0  0  0
   -0.7047    0.6041   -1.3842 H   0  0  0  0  0  0  0  0  0  0  0  0
   -2.0478   -0.3524   -0.7819 H   0  0  0  0  0  0  0  0  0  0  0  0
    0.6594   -1.6454   -1.3158 H   0  0  0  0  0  0  0  0  0  0  0  0
   -0.8196   -2.4087   -0.7188 H   0  0  0  0  0  0  0  0  0  0  0  0
    0.6857   -2.5540    0.1931 H   0  0  0  0  0  0  0  0  0  0  0  0
    1.6813   -0.5598    1.3107 H   0  0  0  0  0  0  0  0  0  0  0  0
    0.8241    0.9898    1.3567 H   0  0  0  0  0  0  0  0  0  0  0  0
    1.3592    1.1576   -0.8912 H   0  0  0  0  0  0  0  0  0  0  0  0
  1  2  1  0  0  0  0
  2  3  1  0  0  0  0
  3  4  1  0  0  0  0
  3  5  1  0  0  0  0
  3  6  1  0  0  0  0
  6  7  1  0  0  0  0
  1  8  1  0  0  0  0
  1  9  1  0  0  0  0
  1 10  1  0  0  0  0
  2 11  1  0  0  0  0
  2 12  1  0  0  0  0
  5 13  1  0  0  0  0
  5 14  1  0  0  0  0
  5 15  1  0  0  0  0
  6 16  1  0  0  0  0
  6 17  1  0  0  0  0
  7 18  1  0  0  0  0
M  END
