21
 xtb: 6.7.1 (edcfbbe)
C            1.71233970665216       -1.19988927246885       -0.06814057301858
C            1.25715561893359        0.15882431674237        0.42381812644200
H            1.15690168334708        0.12724746305494        1.52049624472506
C           -0.06648203002678        0.64194678229874       -0.16740015793504
C           -1.28709176899503       -0.23400089736465        0.18770042243924
C           -2.51647360684593        0.63499381529647        0.46250586966402
C           -1.60599896143511       -1.24716303941363       -0.91487274000252
O            2.31749356711181        1.08900218649741        0.08333508584741
H            1.77967326869564       -1.21532707447907       -1.16151918534102
H            2.69618267462145       -1.44051043321252        0.34715166314271
H            1.01437460576758       -1.97818068605092        0.25022951857869
H           -0.23116437477442        1.66133659387869        0.20730339249157
H            0.03730630763840        0.71671896954650       -1.25877339423382
H           -1.05464963213551       -0.78735360510987        1.10939337097203
H           -3.39025970403714        0.01869436210857        0.70132574261341
H           -2.76318432901647        1.24002427807004       -0.41863810555439
H           -2.34191177689469        1.31709476164335        1.30139903021287
H           -0.74360715259989       -1.87018010445335       -1.16813078716612
H           -2.42373810334739       -1.91078501207810       -0.61252643900048
H           -1.91861715731488       -0.72452947175119       -1.82711511476085
H            2.03225662272514        1.96633136819932        0.37092715803581
