 xtb: 6.7.1 (edcfbbe)
          04112512313D

 18 17  0     0  0            999 V2000
   -1.4886    1.1729   -0.5192 C   0  0  0  0  0  0  0  0  0  0  0  0
   -1.2064    0.3805    0.7525 C   0  0  0  0  0  0  0  0  0  0  0  0
   -0.0823   -0.6594    0.6324 C   0  0  0  0  0  0  0  0  0  0  0  0
   -0.0842   -1.2350    1.5664 H   0  0  0  0  0  0  0  0  0  0  0  0
   -0.3028   -1.6237   -0.5309 C   0  0  0  0  0  0  0  0  0  0  0  0
    1.3129   -0.0239    0.5456 C   0  0  0  0  0  0  0  0  0  0  0  0
    1.5146    0.6228   -0.6949 O   0  0  0  0  0  0  0  0  0  0  0  0
   -1.9074    0.5314   -1.2896 H   0  0  0  0  0  0  0  0  0  0  0  0
   -2.2035    1.9656   -0.3097 H   0  0  0  0  0  0  0  0  0  0  0  0
   -0.5746    1.6172   -0.9013 H   0  0  0  0  0  0  0  0  0  0  0  0
   -2.1188   -0.1396    1.0548 H   0  0  0  0  0  0  0  0  0  0  0  0
   -0.9444    1.0749    1.5549 H   0  0  0  0  0  0  0  0  0  0  0  0
   -1.3107   -2.0289   -0.5006 H   0  0  0  0  0  0  0  0  0  0  0  0
    0.4055   -2.4471   -0.4747 H   0  0  0  0  0  0  0  0  0  0  0  0
   -0.1537   -1.1078   -1.4749 H   0  0  0  0  0  0  0  0  0  0  0  0
    2.0606   -0.8194    0.6746 H   0  0  0  0  0  0  0  0  0  0  0  0
    1.4301    0.6957    1.3688 H   0  0  0  0  0  0  0  0  0  0  0  0
    2.4245    0.9424   -0.7403 H   0  0  0  0  0  0  0  0  0  0  0  0
  1  2  1  0  0  0  0
  2  3  1  0  0  0  0
  3  4  1  0  0  0  0
  3  5  1  0  0  0  0
  3  6  1  0  0  0  0
  6  7  1  0  0  0  0
  1  8  1  0  0  0  0
  1  9  1  0  0  0  0
  1 10  1  0  0  0  0
  2 11  1  0  0  0  0
  2 12  1  0  0  0  0
  5 13  1  0  0  0  0
  5 14  1  0  0  0  0
  5 15  1  0  0  0  0
  6 16  1  0  0  0  0
  6 17  1  0  0  0  0
  7 18  1  0  0  0  0
M  END
