 xtb: 6.7.1 (edcfbbe)
          04112512153D

 21 20  0     0  0            999 V2000
    2.1652   -0.4026    1.2005 C   0  0  0  0  0  0  0  0  0  0  0  0
    1.3216   -0.5303   -0.0635 C   0  0  0  0  0  0  0  0  0  0  0  0
    0.2917    0.6063   -0.2155 C   0  0  0  0  0  0  0  0  0  0  0  0
    0.5578    1.4124    0.4887 H   0  0  0  0  0  0  0  0  0  0  0  0
   -1.1657    0.2019    0.0850 C   0  0  0  0  0  0  0  0  0  0  0  0
   -1.6783   -0.8646   -0.8813 C   0  0  0  0  0  0  0  0  0  0  0  0
   -1.3456   -0.2389    1.5340 C   0  0  0  0  0  0  0  0  0  0  0  0
    0.2912    1.1439   -1.5317 O   0  0  0  0  0  0  0  0  0  0  0  0
    2.7173    0.5347    1.2037 H   0  0  0  0  0  0  0  0  0  0  0  0
    2.8796   -1.2205    1.2559 H   0  0  0  0  0  0  0  0  0  0  0  0
    1.5389   -0.4327    2.0878 H   0  0  0  0  0  0  0  0  0  0  0  0
    1.9794   -0.5146   -0.9354 H   0  0  0  0  0  0  0  0  0  0  0  0
    0.8169   -1.4953   -0.0666 H   0  0  0  0  0  0  0  0  0  0  0  0
   -1.7579    1.1093   -0.0823 H   0  0  0  0  0  0  0  0  0  0  0  0
   -2.7537   -0.9770   -0.7700 H   0  0  0  0  0  0  0  0  0  0  0  0
   -1.4613   -0.5677   -1.9039 H   0  0  0  0  0  0  0  0  0  0  0  0
   -1.2146   -1.8289   -0.6899 H   0  0  0  0  0  0  0  0  0  0  0  0
   -0.9901    0.5285    2.2177 H   0  0  0  0  0  0  0  0  0  0  0  0
   -0.8020   -1.1598    1.7277 H   0  0  0  0  0  0  0  0  0  0  0  0
   -2.3989   -0.4172    1.7348 H   0  0  0  0  0  0  0  0  0  0  0  0
    1.1648    1.5073   -1.7265 H   0  0  0  0  0  0  0  0  0  0  0  0
  1  2  1  0  0  0  0
  2  3  1  0  0  0  0
  3  4  1  0  0  0  0
  3  5  1  0  0  0  0
  5  6  1  0  0  0  0
  5  7  1  0  0  0  0
  3  8  1  0  0  0  0
  1  9  1  0  0  0  0
  1 10  1  0  0  0  0
  1 11  1  0  0  0  0
  2 12  1  0  0  0  0
  2 13  1  0  0  0  0
  5 14  1  0  0  0  0
  6 15  1  0  0  0  0
  6 16  1  0  0  0  0
  6 17  1  0  0  0  0
  7 18  1  0  0  0  0
  7 19  1  0  0  0  0
  7 20  1  0  0  0  0
  8 21  1  0  0  0  0
M  END
