 18

C     -0.497000    -2.034000     0.494000
C      0.350000    -1.028000     0.039000
C      1.648000    -1.337000    -0.366000
C      2.117000    -2.660000    -0.322000
C      3.421000    -2.990000    -0.727000
C      3.869000    -4.310000    -0.676000
C      3.023000    -5.317000    -0.221000
C      1.724000    -5.007000     0.185000
C      1.256000    -3.684000     0.140000
C     -0.048000    -3.354000     0.545000
H     -1.508000    -1.793000     0.809000
H     -0.000000    -0.000000     0.000000
H      2.293000    -0.534000    -0.718000
H      4.099000    -2.219000    -1.086000
H      4.880000    -4.552000    -0.992000
H      3.373000    -6.345000    -0.182000
H      1.080000    -5.810000     0.537000
H     -0.727000    -4.125000     0.903000
