  18
 
 C         -0.4970000000       -2.0340000000        0.4940000000
 C          0.3500000000       -1.0280000000        0.0390000000
 C          1.6480000000       -1.3370000000       -0.3660000000
 C          2.1170000000       -2.6600000000       -0.3220000000
 C          3.4210000000       -2.9900000000       -0.7270000000
 C          3.8690000000       -4.3100000000       -0.6760000000
 C          3.0230000000       -5.3170000000       -0.2210000000
 C          1.7240000000       -5.0070000000        0.1850000000
 C          1.2560000000       -3.6840000000        0.1400000000
 C         -0.0480000000       -3.3540000000        0.5450000000
 H         -1.5080000000       -1.7930000000        0.8090000000
 H          0.0000000000        0.0000000000        0.0000000000
 H          2.2930000000       -0.5340000000       -0.7180000000
 H          4.0990000000       -2.2190000000       -1.0860000000
 H          4.8800000000       -4.5520000000       -0.9920000000
 H          3.3730000000       -6.3450000000       -0.1820000000
 H          1.0800000000       -5.8100000000        0.5370000000
 H         -0.7270000000       -4.1250000000        0.9030000000
