18
 xtb: 6.7.1 (edcfbbe)
C            1.24370396949298       -1.36649203344230        0.24232572196376
C            0.84617055949067        0.10930585509893        0.28141461747543
C            2.07125779976603        0.99907781747252        0.06730359834252
C           -0.22772983472971        0.44242869825092       -0.76284214192636
C           -1.54500312368331       -0.30115114671103       -0.60963145623326
O           -2.16173148855035       -0.08793353911509        0.67683645395801
H            0.40656210776812       -2.02588422138138        0.49206681016587
H            2.04849126649866       -1.57041173254795        0.95686299478596
H            1.60408383129732       -1.64132137754517       -0.75692793466417
H            0.43624685157544        0.33029147545613        1.27610986769051
H            2.83264195227006        0.81477787360457        0.83307166853774
H            1.80287657764785        2.06067385870772        0.10593746987439
H            2.52515413176015        0.80237087468513       -0.91207012654771
H            0.16531866898106        0.22225700379031       -1.76617473722122
H           -0.43318097962262        1.52211912067851       -0.73691311716170
H           -2.23443194889443        0.00417923563414       -1.40980642455405
H           -1.40345836313290       -1.38315954158707       -0.69177175170423
H           -2.24771206884467        0.86733853531218        0.79450846055123
