 xtb: 6.7.1 (edcfbbe)
          04112512083D

 17 16  0     0  0            999 V2000
   -3.1003    0.4280   -0.3054 C   0  0  0  0  0  0  0  0  0  0  0  0
   -1.7832   -0.3367   -0.3599 C   0  0  0  0  0  0  0  0  0  0  0  0
   -0.8335    0.0571    0.7821 C   0  0  0  0  0  0  0  0  0  0  0  0
    0.3721    0.6574    0.2873 O   0  0  0  0  0  0  0  0  0  0  0  0
    1.3977   -0.1345   -0.0113 C   0  0  0  0  0  0  0  0  0  0  0  0
    1.3749   -1.3400    0.1263 O   0  0  0  0  0  0  0  0  0  0  0  0
    2.5674    0.6537   -0.5195 C   0  0  0  0  0  0  0  0  0  0  0  0
   -3.7366    0.1337   -1.1355 H   0  0  0  0  0  0  0  0  0  0  0  0
   -3.6244    0.2153    0.6225 H   0  0  0  0  0  0  0  0  0  0  0  0
   -2.9216    1.4981   -0.3692 H   0  0  0  0  0  0  0  0  0  0  0  0
   -1.2819   -0.1290   -1.3075 H   0  0  0  0  0  0  0  0  0  0  0  0
   -1.9756   -1.4091   -0.3213 H   0  0  0  0  0  0  0  0  0  0  0  0
   -1.2792    0.8242    1.4161 H   0  0  0  0  0  0  0  0  0  0  0  0
   -0.5590   -0.8123    1.3859 H   0  0  0  0  0  0  0  0  0  0  0  0
    3.3918   -0.0167   -0.7376 H   0  0  0  0  0  0  0  0  0  0  0  0
    2.8597    1.3824    0.2315 H   0  0  0  0  0  0  0  0  0  0  0  0
    2.2723    1.1934   -1.4153 H   0  0  0  0  0  0  0  0  0  0  0  0
  1  2  1  0  0  0  0
  2  3  1  0  0  0  0
  3  4  1  0  0  0  0
  4  5  1  0  0  0  0
  5  6  2  0  0  0  0
  5  7  1  0  0  0  0
  1  8  1  0  0  0  0
  1  9  1  0  0  0  0
  1 10  1  0  0  0  0
  2 11  1  0  0  0  0
  2 12  1  0  0  0  0
  3 13  1  0  0  0  0
  3 14  1  0  0  0  0
  7 15  1  0  0  0  0
  7 16  1  0  0  0  0
  7 17  1  0  0  0  0
M  END
