  16
 
 C         -1.4836113772       -0.0059717978       -0.2411010838
 C         -0.7297484137       -1.2458087091        0.2359768760
 C          0.7251524370       -1.1635457661       -0.2284916188
 O          1.3609774207        0.0057537255        0.2339445100
 C          0.7155857825        1.1697447595       -0.2286636671
 C         -0.7399468327        1.2400977549        0.2357510174
 H         -2.5056834854       -0.0101428202        0.1420401580
 H         -1.5313790335       -0.0062668071       -1.3333926460
 H         -0.7510669028       -1.2884912513        1.3266030437
 H         -1.1873887017       -2.1547802519       -0.1565903903
 H          1.3110908553       -1.9957984620        0.1676157193
 H          0.7610784939       -1.1957181344       -1.3300582120
 H          1.2946968076        2.0068396236        0.1672962874
 H          0.7512369321        1.2019994331       -1.3302234897
 H         -0.7615833605        1.2827796335        1.3263666585
 H         -1.2050554403        2.1452159742       -0.1569464069
          16
        -19.87858759
 C         -1.4800183995       -0.0008737042        0.2436674360
 C         -0.7319455896       -1.2434081654       -0.2355385176
 C          0.7245709267       -1.1663105704        0.2244960872
 O          1.3632235369        0.0007884645       -0.2400354458
 C          0.7231327405        1.1671412545        0.2244622329
 C         -0.7334668608        1.2425705847       -0.2354787712
 H         -1.5242730268       -0.0009471559        1.3360236330
 H         -2.5032827938       -0.0014463196       -0.1362395665
 H         -1.1917000698       -2.1508693530        0.1580752387
 H         -0.7565347861       -1.2857069508       -1.3260360374
 H          0.7635716881       -1.1981769104        1.3259015475
 H          1.3066792707       -2.0005854707       -0.1730600654
 H          0.7622251245        1.1991859383        1.3258464115
 H          1.3041112069        2.0020371363       -0.1733244098
 H         -1.1942907798        2.1494550547        0.1582811710
 H         -0.7581096286        1.2850319434       -1.3260227298
