  16
 
 C         -0.4600000000       -0.9420000000       -1.0400000000
 C         -0.4940000000       -1.2940000000        0.4430000000
 C          0.5550000000       -0.4990000000        1.2100000000
 O          0.3820000000        0.9030000000        0.9980000000
 C          0.5340000000        1.2620000000       -0.3750000000
 C         -0.5160000000        0.5690000000       -1.2350000000
 H         -1.2970000000       -1.4210000000       -1.5610000000
 H          0.4630000000       -1.3320000000       -1.4860000000
 H         -1.4880000000       -1.0490000000        0.8380000000
 H         -0.3370000000       -2.3680000000        0.5840000000
 H          0.4550000000       -0.6890000000        2.2830000000
 H          1.5700000000       -0.7890000000        0.9140000000
 H          0.4180000000        2.3480000000       -0.4510000000
 H          1.5480000000        1.0130000000       -0.7070000000
 H         -1.5110000000        0.9240000000       -0.9390000000
 H         -0.3730000000        0.8230000000       -2.2900000000
