21
 xtb: 6.7.1 (edcfbbe)
C           -3.76644868865188       -0.11289154171267       -0.41480625331579
C           -2.26088562294493       -0.17196068921811       -0.64779321054031
C           -1.46093915557679        0.15931646288829        0.62158636750023
C            0.02266177086537        0.09870018039560        0.37986500035212
C            0.72516773131919       -1.10061337990145        0.53864343050308
C            2.08671660777270       -1.17501085387840        0.25377093888625
C            2.77023789705080       -0.04703393616110       -0.19657569919762
C            2.08175279741985        1.15380457606542       -0.35886531254473
C            0.72026588718390        1.22375156792268       -0.07271064664462
H           -4.07139755083675       -0.82707334924653        0.35826881813228
H           -4.07270586406939        0.88653342443413       -0.08614149409947
H           -4.32001363152539       -0.35050565627658       -1.32891802096633
H           -1.97537388949750        0.53143057433558       -1.44035624807104
H           -1.97329055977302       -1.17185078046663       -0.99706115660594
H           -1.73775933308606       -0.54936096440371        1.41143050089588
H           -1.74063938007393        1.16197771205777        0.96691893758862
H            0.19684772209527       -1.98318142865918        0.89104303577599
H            2.61584309043943       -2.11405470245081        0.38688253889274
H            3.83181157766458       -0.10271487210098       -0.41688118751084
H            2.60706629022344        2.03908337748652       -0.70515350682811
H            0.18829324733363        2.16351377162136       -0.19926448668669
