 xtb: 6.7.1 (edcfbbe)
          04112511013D

 20 19  0     0  0            999 V2000
   -2.5478   -0.1789   -0.3249 C   0  0  0  0  0  0  0  0  0  0  0  0
   -1.2533   -0.6549    0.3258 C   0  0  0  0  0  0  0  0  0  0  0  0
    0.0001    0.0618   -0.1946 C   0  0  0  0  0  0  0  0  0  0  0  0
   -0.0006    1.5346    0.2089 C   0  0  0  0  0  0  0  0  0  0  0  0
    1.2537   -0.6539    0.3267 C   0  0  0  0  0  0  0  0  0  0  0  0
    2.5479   -0.1789   -0.3253 C   0  0  0  0  0  0  0  0  0  0  0  0
   -2.7637    0.8541   -0.0665 H   0  0  0  0  0  0  0  0  0  0  0  0
   -2.4795   -0.2572   -1.4078 H   0  0  0  0  0  0  0  0  0  0  0  0
   -3.3814   -0.7911    0.0110 H   0  0  0  0  0  0  0  0  0  0  0  0
   -1.1452   -1.7257    0.1357 H   0  0  0  0  0  0  0  0  0  0  0  0
   -1.3188   -0.5188    1.4078 H   0  0  0  0  0  0  0  0  0  0  0  0
    0.0004   -0.0009   -1.2892 H   0  0  0  0  0  0  0  0  0  0  0  0
    0.8763    2.0423   -0.1825 H   0  0  0  0  0  0  0  0  0  0  0  0
   -0.0002    1.6283    1.2930 H   0  0  0  0  0  0  0  0  0  0  0  0
   -0.8786    2.0412   -0.1818 H   0  0  0  0  0  0  0  0  0  0  0  0
    1.3195   -0.5158    1.4084 H   0  0  0  0  0  0  0  0  0  0  0  0
    1.1458   -1.7250    0.1384 H   0  0  0  0  0  0  0  0  0  0  0  0
    2.7621    0.8556   -0.0713 H   0  0  0  0  0  0  0  0  0  0  0  0
    2.4805   -0.2621   -1.4079 H   0  0  0  0  0  0  0  0  0  0  0  0
    3.3822   -0.7884    0.0140 H   0  0  0  0  0  0  0  0  0  0  0  0
  1  2  1  0  0  0  0
  2  3  1  0  0  0  0
  3  4  1  0  0  0  0
  3  5  1  0  0  0  0
  5  6  1  0  0  0  0
  1  7  1  0  0  0  0
  1  8  1  0  0  0  0
  1  9  1  0  0  0  0
  2 10  1  0  0  0  0
  2 11  1  0  0  0  0
  3 12  1  0  0  0  0
  4 13  1  0  0  0  0
  4 14  1  0  0  0  0
  4 15  1  0  0  0  0
  5 16  1  0  0  0  0
  5 17  1  0  0  0  0
  6 18  1  0  0  0  0
  6 19  1  0  0  0  0
  6 20  1  0  0  0  0
M  END
