 23

C     -0.510000     0.908000     0.341000
C     -0.573000     0.958000     1.859000
C      0.824000     0.959000     2.478000
C      0.756000     1.009000     4.003000
C      2.131000     1.010000     4.632000
O      3.188000     0.976000     4.017000
O      1.996000     1.054000     5.991000
C      3.220000     1.059000     6.732000
C      2.890000     1.109000     8.205000
H     -1.514000     0.908000    -0.094000
H      0.037000     1.769000    -0.057000
H      0.003000    -0.001000     0.013000
H     -1.118000     1.859000     2.167000
H     -1.142000     0.095000     2.223000
H      1.393000     1.820000     2.105000
H      1.369000     0.060000     2.162000
H      0.210000     0.136000     4.378000
H      0.235000     1.919000     4.320000
H      3.771000     0.151000     6.486000
H      3.797000     1.933000     6.431000
H      3.806000     1.114000     8.802000
H      2.307000     2.005000     8.444000
H      2.282000     0.247000     8.498000
