 xtb: 6.7.1 (edcfbbe)
          04112511413D

 14 13  0     0  0            999 V2000
   -1.2086    0.2512   -0.4584 C   0  0  0  0  0  0  0  0  0  0  0  0
   -0.0439    0.5483    0.5028 C   0  0  0  0  0  0  0  0  0  0  0  0
    0.9107   -0.6509    0.6258 C   0  0  0  0  0  0  0  0  0  0  0  0
    1.6094   -0.8850   -0.5783 O   0  0  0  0  0  0  0  0  0  0  0  0
    0.6526    1.6998    0.0864 O   0  0  0  0  0  0  0  0  0  0  0  0
   -1.9082   -0.8800    0.0107 O   0  0  0  0  0  0  0  0  0  0  0  0
   -0.8137    0.0767   -1.4689 H   0  0  0  0  0  0  0  0  0  0  0  0
   -1.8529    1.1375   -0.4898 H   0  0  0  0  0  0  0  0  0  0  0  0
   -0.4596    0.7664    1.4920 H   0  0  0  0  0  0  0  0  0  0  0  0
    0.3445   -1.5292    0.9459 H   0  0  0  0  0  0  0  0  0  0  0  0
    1.6717   -0.4187    1.3743 H   0  0  0  0  0  0  0  0  0  0  0  0
    1.0386   -1.3697   -1.1890 H   0  0  0  0  0  0  0  0  0  0  0  0
    1.3182    1.4212   -0.5640 H   0  0  0  0  0  0  0  0  0  0  0  0
   -2.7154   -0.9949   -0.5090 H   0  0  0  0  0  0  0  0  0  0  0  0
  1  2  1  0  0  0  0
  2  3  1  0  0  0  0
  3  4  1  0  0  0  0
  2  5  1  0  0  0  0
  1  6  1  0  0  0  0
  1  7  1  0  0  0  0
  1  8  1  0  0  0  0
  2  9  1  0  0  0  0
  3 10  1  0  0  0  0
  3 11  1  0  0  0  0
  4 12  1  0  0  0  0
  5 13  1  0  0  0  0
  6 14  1  0  0  0  0
M  END
