 33

C      1.957000    -1.026000    -1.604000
C      1.885000    -1.036000    -0.112000
C      2.921000    -1.631000     0.608000
C      2.878000    -1.652000     2.002000
C      1.800000    -1.079000     2.676000
C      0.764000    -0.484000     1.955000
C      0.807000    -0.463000     0.561000
C     -0.303000     0.174000    -0.216000
N     -0.320000     0.090000     2.656000
C     -0.921000    -0.211000     3.892000
C     -0.909000    -1.529000     4.349000
C     -1.499000    -1.849000     5.571000
C     -2.102000    -0.851000     6.337000
C     -2.114000     0.467000     5.880000
C     -1.523000     0.787000     4.657000
C     -1.553000     2.173000     4.208000
O     -0.700000     2.711000     3.498000
O     -2.649000     2.840000     4.660000
H      2.471000    -0.124000    -1.948000
H      2.495000    -1.904000    -1.976000
H      0.954000    -1.051000    -2.044000
H      3.766000    -2.080000     0.093000
H      3.686000    -2.115000     2.562000
H      1.777000    -1.102000     3.762000
H     -0.085000     1.234000    -0.383000
H     -0.434000    -0.316000    -1.188000
H     -1.256000     0.089000     0.318000
H     -0.747000     0.872000     2.170000
H     -0.442000    -2.316000     3.761000
H     -1.489000    -2.875000     5.928000
H     -2.561000    -1.099000     7.289000
H     -2.586000     1.236000     6.486000
H     -2.679000     3.774000     4.362000
