  33
 
 C          1.9570000000       -1.0260000000       -1.6040000000
 C          1.8850000000       -1.0360000000       -0.1120000000
 C          2.9210000000       -1.6310000000        0.6080000000
 C          2.8780000000       -1.6520000000        2.0020000000
 C          1.8000000000       -1.0790000000        2.6760000000
 C          0.7640000000       -0.4840000000        1.9550000000
 C          0.8070000000       -0.4630000000        0.5610000000
 C         -0.3030000000        0.1740000000       -0.2160000000
 N         -0.3200000000        0.0900000000        2.6560000000
 C         -0.9210000000       -0.2110000000        3.8920000000
 C         -0.9090000000       -1.5290000000        4.3490000000
 C         -1.4990000000       -1.8490000000        5.5710000000
 C         -2.1020000000       -0.8510000000        6.3370000000
 C         -2.1140000000        0.4670000000        5.8800000000
 C         -1.5230000000        0.7870000000        4.6570000000
 C         -1.5530000000        2.1730000000        4.2080000000
 O         -0.7000000000        2.7110000000        3.4980000000
 O         -2.6490000000        2.8400000000        4.6600000000
 H          2.4710000000       -0.1240000000       -1.9480000000
 H          2.4950000000       -1.9040000000       -1.9760000000
 H          0.9540000000       -1.0510000000       -2.0440000000
 H          3.7660000000       -2.0800000000        0.0930000000
 H          3.6860000000       -2.1150000000        2.5620000000
 H          1.7770000000       -1.1020000000        3.7620000000
 H         -0.0850000000        1.2340000000       -0.3830000000
 H         -0.4340000000       -0.3160000000       -1.1880000000
 H         -1.2560000000        0.0890000000        0.3180000000
 H         -0.7470000000        0.8720000000        2.1700000000
 H         -0.4420000000       -2.3160000000        3.7610000000
 H         -1.4890000000       -2.8750000000        5.9280000000
 H         -2.5610000000       -1.0990000000        7.2890000000
 H         -2.5860000000        1.2360000000        6.4860000000
 H         -2.6790000000        3.7740000000        4.3620000000
