 21

C      1.523000    -0.031000    -2.894000
C      1.113000     1.295000    -2.268000
H      1.450000     1.337000    -1.227000
C     -0.393000     1.569000    -2.352000
C     -1.305000     0.538000    -1.661000
C     -1.022000     0.422000    -0.163000
C     -2.772000     0.916000    -1.883000
O      1.778000     2.350000    -2.965000
H      1.193000    -0.090000    -3.937000
H      2.614000    -0.128000    -2.905000
H      1.113000    -0.884000    -2.346000
H     -0.586000     2.567000    -1.935000
H     -0.676000     1.648000    -3.411000
H     -1.148000    -0.446000    -2.119000
H     -1.680000    -0.315000     0.309000
H     -1.164000     1.382000     0.344000
H      0.013000     0.113000     0.014000
H     -3.437000     0.194000    -1.398000
H     -2.988000     1.903000    -1.460000
H     -3.019000     0.943000    -2.950000
H      2.728000     2.188000    -2.863000
