26
CONF1
C -1.6526572663 -0.6236908320 1.3049291961
C -1.2179833813 -0.4743802920 -0.1517285391
C -2.3925878596 0.0297322812 -0.9936033292
C 0.0319137545 0.4169362583 -0.3285208844
C -0.1817530984 1.8136268458 0.2613678752
C 1.3159745029 -0.2209378871 0.2467923388
C 1.5724815389 -1.6234665031 -0.3088699354
C 2.5383730423 0.6505715837 -0.0529858694
H -2.4910697487 -1.3140206444 1.3705885269
H -0.8445747733 -1.0150325632 1.9170631068
H -1.9690242447 0.3315478715 1.7149400759
H -0.9679395676 -1.4676139754 -0.5349759567
H -2.7896415872 0.9646896291 -0.6067871583
H -3.1967760343 -0.7027241307 -0.9813659862
H -2.0876342414 0.1846780210 -2.0261127712
H 0.1841139190 0.5264657565 -1.4098562791
H -1.1635627611 2.1968190236 0.0004898498
H 0.5536859560 2.5118154793 -0.1275850198
H -0.0950523438 1.7913168106 1.3449955971
H 1.2137444598 -0.2935458823 1.3348417156
H 2.5585416654 -1.9672358577 -0.0040481716
H 0.8459729269 -2.3424732465 0.0586726712
H 1.5365183275 -1.6136779327 -1.3962854658
H 2.4786541133 1.6099273489 0.4514507342
H 2.6265422928 0.8236272854 -1.1236462351
H 3.4435109995 0.1521115126 0.2871699067
26
CONF2
C -2.4441635672 0.7386297927 0.5466365424
C -1.2467675331 -0.2137177352 0.4937366693
C -1.7157190436 -1.5450141846 -0.0976765888
C -0.0802658274 0.4020870761 -0.3102865285
C 0.2760551763 1.7920334386 0.2238110222
C 1.1608880345 -0.5175246403 -0.3640835802
C 2.1240707299 -0.0911537993 -1.4739960728
C 1.9085382975 -0.6028385854 0.9655050506
H -2.2158657804 1.6371246526 1.1113479037
H -2.7456499925 1.0240175310 -0.4591554848
H -3.2873939558 0.2484053274 1.0284605353
H -0.9110488324 -0.3902096797 1.5211865151
H -1.9465646679 -1.4291187404 -1.1546344918
H -2.6154559573 -1.8810127388 0.4130225723
H -0.9667601500 -2.3240873012 0.0110571839
H -0.4299493774 0.5180131589 -1.3439417946
H 1.2060905472 2.1442264177 -0.2127390123
H 0.3871026652 1.7726794982 1.3051759879
H -0.4964480319 2.5116949620 -0.0309412275
H 0.8166033167 -1.5229719059 -0.6213551660
H 2.9265775763 -0.8194187658 -1.5684173387
H 1.6064441051 -0.0277313536 -2.4285214484
H 2.5742868999 0.8752290664 -1.2618263509
H 1.2443603075 -0.9075499917 1.7698611748
H 2.3523964739 0.3545070206 1.2243491089
H 2.7081959743 -1.3369312631 0.8919534840
26
CONF3
C -2.3704463194 0.7168078584 0.7640458713
C -1.2402312953 -0.2711269092 0.4685636025
C -1.8315010824 -1.4496256846 -0.3081585132
C -0.0749203003 0.3814177530 -0.3091509916
C 0.2610404777 1.7770904774 0.2204764964
C 1.1764984315 -0.5271794747 -0.3276351508
C 2.0949034371 -0.1814224339 -1.5005842434
C 1.9697829674 -0.4921169864 0.9782849986
H -3.2071413553 0.1911176382 1.2194654930
H -2.0533262336 1.4963425676 1.4496354751
H -2.7208467887 1.1791089568 -0.1563954054
H -0.8569253028 -0.6425892687 1.4250034703
H -2.2478584861 -1.1041777499 -1.2524003004
H -2.6291306105 -1.9144035729 0.2671871472
H -1.0876112544 -2.2120084867 -0.5217373176
H -0.4059916271 0.4931887143 -1.3490177590
H 0.4023442509 1.7614709723 1.2979400185
H -0.5336335442 2.4790339528 -0.0147659215
H 1.1722624023 2.1469087215 -0.2420831676
H 0.8388276176 -1.5569393383 -0.4793218321
H 1.5577797845 -0.2549447488 -2.4435665180
H 2.4889081084 0.8277321286 -1.4075670423
H 2.9368923461 -0.8693909323 -1.5320405007
H 2.4505457393 0.4721297807 1.1175759395
H 2.7448151920 -1.2553672008 0.9577676290
H 1.3273373218 -0.6871848409 1.8330386178
26
CONF4
C -1.9588430439 -1.3954323076 0.3946335046
C -1.4930893826 -0.0060783577 -0.0440654123
C -1.6023779886 0.9666983279 1.1276280305
C -0.0947555600 -0.0651010062 -0.7010242800
C 0.1534964902 1.1750966638 -1.5606579888
C 1.0635751300 -0.3560795935 0.2823387422
C 2.1096441761 -1.2492994895 -0.3886538695
C 1.7588515397 0.8877095116 0.8375334790
H -1.3251020338 -1.7912116572 1.1845890023
H -2.9773958668 -1.3469925043 0.7729743013
H -1.9374132385 -2.0905220133 -0.4417470706
H -2.1841766436 0.3368971258 -0.8240905122
H -1.2945157830 1.9673714205 0.8367673496
H -0.9929338803 0.6376969951 1.9651108841
H -2.6359485050 1.0190055588 1.4641060401
H -0.1359311163 -0.9176340363 -1.3905073096
H 1.1180559399 1.1079602335 -2.0575201569
H 0.1333073302 2.0847175877 -0.9681249911
H -0.6146063651 1.2523633433 -2.3275565968
H 0.6534098486 -0.9144782972 1.1296259935
H 2.5212397298 -0.7609900345 -1.2693420927
H 2.9275554223 -1.4575913244 0.2977100987
H 1.6712322019 -2.1967870530 -0.6941592691
H 2.4709731203 0.5905809435 1.6053352885
H 1.0518391417 1.5791465622 1.2836438516
H 2.3071148875 1.4067697219 0.0560530097
26
CONF5
C -1.6343173927 0.1517559383 1.5144976597
C -1.2702017077 -0.4630942079 0.1623772539
C -2.4948208326 -0.3980839798 -0.7533046353
C -0.0464243889 0.1827334961 -0.5351772011
C 0.0656042550 1.6812207825 -0.2592079709
C 1.2631990223 -0.5902623996 -0.2584055601
C 2.4045922691 -0.0798674433 -1.1403786826
C 1.7090443275 -0.5859954557 1.2020678985
H -2.4055935452 -0.4512977628 1.9899535083
H -0.7801457578 0.1949813746 2.1822139526
H -2.0259312428 1.1574699211 1.3885832488
H -1.0363050155 -1.5217289823 0.3257486381
H -2.3117777247 -0.9308325636 -1.6838600486
H -2.7390142446 0.6350512643 -0.9907759098
H -3.3571904441 -0.8482412039 -0.2665836550
H -0.2179654120 0.0737928733 -1.6137874654
H -0.8791181060 2.1710861277 -0.4821655908
H 0.8262258779 2.1260033787 -0.8948544733
H 0.3200615886 1.8824505575 0.7765786494
H 1.0712976291 -1.6328850568 -0.5434400092
H 2.7386576752 0.9012530852 -0.8134761164
H 3.2521072375 -0.7593807305 -1.0830722148
H 2.0909339531 -0.0131545658 -2.1798041598
H 0.9769875305 -1.0760430903 1.8373043687
H 1.8672617614 0.4280389518 1.5594149546
H 2.6491252098 -1.1258911337 1.2967824162
26
CONF10
C -1.3543853786 -1.2798470184 0.6666594731
C -1.0806247140 -0.3285577534 -0.4966734511
C -2.3866456268 0.3757643767 -0.8787168731
C 0.0393839379 0.7118666635 -0.2661873484
C -0.2858846343 1.6974320658 0.8577378491
C 1.4768202106 0.1551620522 -0.1038846408
C 1.8298848363 -0.3738224277 1.2865522645
C 1.8121047008 -0.8983553859 -1.1598081160
H -0.5343695462 -1.9760892359 0.8132580926
H -1.5235501697 -0.7359326509 1.5915966518
H -2.2477440129 -1.8635126704 0.4519230301
H -0.7816960847 -0.9330239075 -1.3591813056
H -2.2157658582 1.1203401894 -1.6531782500
H -2.8306703894 0.8659033889 -0.0163201331
H -3.1031730224 -0.3498559823 -1.2577732128
H 0.0711343783 1.2951231565 -1.1973098352
H -1.1655250254 2.2842917622 0.6091225016
H 0.5456810469 2.3851084363 0.9973923747
H -0.4688024387 1.1858995548 1.7978046970
H 2.1373653182 1.0142240707 -0.2842224431
H 2.8772650728 -0.6701598183 1.2987955338
H 1.6907572393 0.3904863098 2.0449583514
H 1.2342323573 -1.2396037708 1.5541511748
H 1.5416313047 -0.5488862639 -2.1538178995
H 1.2893026786 -1.8305859430 -0.9624049325
H 2.8802986474 -1.1044786248 -1.1507864165
26
CONF9
C -1.3898281853 -1.2552578703 0.6907595242
C -1.0799170284 -0.3314389848 -0.4854435621
C -2.3722008721 0.3700960630 -0.9164694818
C 0.0380051835 0.7095075082 -0.2480725460
C -0.2848716011 1.6819313345 0.8878128847
C 1.4790248388 0.1578270536 -0.1004564623
C 1.8371801790 -0.4147082001 1.2710063820
C 1.8234099505 -0.8589229034 -1.1890748148
H -0.5667712537 -1.9329409087 0.8939310061
H -1.6087838378 -0.6891086062 1.5915186305
H -2.2637259769 -1.8591481993 0.4531680778
H -0.7622892661 -0.9558031695 -1.3266118128
H -2.8283608617 0.8935638620 -0.0803512970
H -3.0880219045 -0.3620040779 -1.2841562782
H -2.1801854310 1.0863727922 -1.7123443231
H 0.0645887324 1.3032505685 -1.1726876130
H -1.1764487842 2.2576733456 0.6561835257
H 0.5389563043 2.3801959281 1.0207210153
H -0.4467163993 1.1614848666 1.8267465842
H 2.1322570258 1.0278450575 -0.2524595402
H 1.6625592021 0.3108651709 2.0593355840
H 1.2715290717 -1.3129272188 1.4943153889
H 2.8943426714 -0.6740855995 1.2828070862
H 1.3130519481 -1.8032139227 -1.0172825234
H 2.8940505839 -1.0520458247 -1.1898216276
H 1.5445624750 -0.4834737985 -2.1712327068
26
CONF6
C -1.6354907642 0.0788154608 1.5415802325
C -1.3152187786 -0.4656201342 0.1506338546
C -2.5293440104 -0.2535843069 -0.7572883467
C -0.0420512084 0.1215759577 -0.5056859551
C 0.0531342739 1.6388172582 -0.3578665681
C 1.2582097574 -0.6011782305 -0.0744052456
C 2.2742702741 -0.5883823914 -1.2194475503
C 1.9252808577 -0.0407954523 1.1810849828
H -1.8788907573 1.1367354866 1.4982085914
H -2.4967961594 -0.4482267777 1.9473775974
H -0.8055004005 -0.0627275253 2.2266220236
H -1.1621957639 -1.5479678930 0.2420718524
H -2.3653621346 -0.7017766575 -1.7347394424
H -2.7297339797 0.8063229890 -0.8936547725
H -3.4127420814 -0.7105004155 -0.3170412776
H -0.1490010637 -0.0881895201 -1.5772820826
H 0.9098428697 2.0156858085 -0.9113711393
H 0.1583783523 1.9333260011 0.6812492857
H -0.8378722298 2.1125366104 -0.7624971106
H 1.0001440687 -1.6486495698 0.1230189965
H 1.8670439471 -1.0715638234 -2.1047612679
H 2.5477355386 0.4315575808 -1.4791598504
H 3.1786828240 -1.1176831202 -0.9281047083
H 2.7656212871 -0.6747433629 1.4573427174
H 1.2394458127 -0.0108598101 2.0217626343
H 2.3047830508 0.9617710597 1.0042514262
26
CONF8
C -2.4577906594 0.2633247680 0.6275307522
C -1.1500594950 -0.3342276917 0.0971602704
C -1.3542930263 -0.6749531645 -1.3796948665
C 0.0346301282 0.6288238587 0.3290002386
C 0.1063939681 1.0424625904 1.8043789928
C 1.4290286624 0.1025930628 -0.1019441965
C 1.6651503241 -1.3698290511 0.2305030131
C 1.7621075884 0.3840197884 -1.5687174482
H -2.6184143044 1.2564910699 0.2129222583
H -3.2959116947 -0.3657863436 0.3352878919
H -2.4601608132 0.3308722035 1.7109638940
H -0.9605097715 -1.2615906314 0.6463799509
H -0.5487888000 -1.2889309285 -1.7688156734
H -1.4206666096 0.2338228377 -1.9737109109
H -2.2805407196 -1.2323719107 -1.5060215856
H -0.1613229939 1.5350668702 -0.2570341009
H -0.7662778464 1.6172669905 2.0976334354
H 0.9814541659 1.6645192726 1.9798466785
H 0.1763271751 0.1666187881 2.4456944754
H 2.1575447385 0.6780824524 0.4826409380
H 1.4412003418 -1.5699974527 1.2751861303
H 1.0550693595 -2.0223786190 -0.3875525319
H 2.7091482041 -1.6212345401 0.0547634992
H 1.1612653564 -0.2102929880 -2.2483345479
H 2.8088719780 0.1517606942 -1.7558539724
H 1.6026262829 1.4350221209 -1.7994194381
26
CONF7
C -1.6008494103 -0.1665885079 1.5072863661
C -1.2985051114 -0.4716571238 0.0411730685
C -2.5134817517 -0.1284947285 -0.8210960803
C -0.0147151536 0.2231413318 -0.4661003141
C -0.0448356101 1.7341530906 -0.2384006213
C 1.2468828689 -0.4875482049 0.1041726452
C 1.9987233332 -1.1977512707 -1.0233835938
C 2.2196093000 0.4142938818 0.8633777846
H -0.7269065362 -0.3377212053 2.1306736612
H -1.9175542250 0.8659446593 1.6281636101
H -2.4037978745 -0.8089690581 1.8625780582
H -1.1296690042 -1.5516944023 -0.0542938049
H -2.3148546025 -0.3427742536 -1.8689188648
H -2.7781788415 0.9215297888 -0.7269877082
H -3.3709487213 -0.7199123816 -0.5077018503
H 0.0007143118 0.0772773912 -1.5526506268
H -0.9389697351 2.1568053223 -0.6893544638
H 0.8143685651 2.2039631357 -0.7092662423
H -0.0406163404 1.9868213721 0.8168394005
H 0.9128758958 -1.2573090827 0.8086423221
H 2.8470302575 -1.7525964395 -0.6281373170
H 1.3449568970 -1.8970337249 -1.5400827846
H 2.3706079013 -0.4735160968 -1.7454088778
H 3.0370148800 -0.1892604706 1.2533629805
H 1.7350440698 0.9036962604 1.7031322276
H 2.6443452587 1.1734785703 0.2123179290
26
CONF11
C -2.5047004331 0.6417736076 0.5195186380
C -1.2633096115 -0.2518057064 0.4770457959
C -1.6242278005 -1.5330536320 -0.2772959108
C -0.0482960333 0.4540221613 -0.1667945412
C 0.1490646558 1.8527832982 0.4211476894
C 1.2194981675 -0.4448347397 -0.0697745641
C 1.6269813178 -0.9419780913 -1.4583651018
C 2.4373029812 0.2021069276 0.5926370397
H -3.3636653971 0.0621253730 0.8508671405
H -2.3789288243 1.4716624738 1.2080985317
H -2.7229549440 1.0356390394 -0.4710071065
H -0.9968191965 -0.5151034074 1.5077758434
H -2.4696165298 -2.0230885625 0.2010122341
H -0.7985324862 -2.2380393893 -0.2990478071
H -1.9032293010 -1.2965070330 -1.3022388544
H -0.2791004935 0.5884223074 -1.2297830409
H 1.0437631378 2.3164755945 0.0177265682
H 0.2319492730 1.8160673820 1.5046679745
H -0.6912078062 2.4902281156 0.1620720706
H 0.9677727823 -1.3168793377 0.5429081890
H 2.4688898707 -1.6275859403 -1.3860914158
H 0.8055156393 -1.4604536205 -1.9459146494
H 1.9238674849 -0.1030675182 -2.0847727047
H 3.2251039036 -0.5426643574 0.6892631403
H 2.2016494676 0.5714536367 1.5861050049
H 2.8271453905 1.0214044828 -0.0059003241
26
CONF13
C -1.1559522640 -1.0519087971 -1.4597949228
C -1.2860840418 0.0651981415 -0.4254432366
C -1.9586899106 -0.4817044255 0.8346322405
C 0.0257127214 0.8601015307 -0.2101974435
C -0.2165115035 2.0013137241 0.7851093294
C 1.3357826961 0.1265689543 0.1710532901
C 1.2145203729 -0.9078446310 1.2868994383
C 2.0490948740 -0.4951723133 -1.0319190447
H -0.6608640112 -0.6927084292 -2.3584848180
H -0.5970712349 -1.8935563416 -1.0606342563
H -2.1452511622 -1.4117594246 -1.7365660386
H -1.9803337760 0.8053013961 -0.8477190534
H -1.4058472088 -1.3110882877 1.2612391280
H -2.9526884924 -0.8425343812 0.5754460862
H -2.0713725624 0.2895336594 1.5902245696
H 0.2296822980 1.3307575057 -1.1814032128
H -1.1527106690 2.5101491181 0.5665727284
H 0.5877159787 2.7313193640 0.7227749245
H -0.2545066257 1.6315925131 1.8062077367
H 1.9994773799 0.9183312172 0.5426831812
H 2.2093846203 -1.2011613588 1.6176967058
H 0.6810456318 -0.5033241774 2.1421557985
H 0.7045220444 -1.8020250611 0.9396342366
H 2.1428445411 0.2267563423 -1.8401979828
H 1.5222465247 -1.3660325633 -1.4072309815
H 3.0499059706 -0.8084867772 -0.7406034800
26
CONF14
C -1.4307268347 -0.3212524653 -1.7070454741
C -1.3215190076 0.1732376346 -0.2638674490
C -1.7256946030 -0.9523012383 0.6869785061
C 0.0182521836 0.8840050982 0.0472063809
C -0.1244882538 1.6949189509 1.3413767011
C 1.3527475217 0.0996642403 0.0770795572
C 1.4489037592 -1.0320217881 1.0991360146
C 1.7876633186 -0.4195516425 -1.2942033307
H -2.4703644820 -0.5458673230 -1.9380161789
H -1.0824855341 0.4347938505 -2.4063999552
H -0.8547469765 -1.2283321077 -1.8608317342
H -2.0735746745 0.9661663802 -0.1518649067
H -2.7798119084 -1.1823050515 0.5421837963
H -1.5837162554 -0.6691097236 1.7251504191
H -1.1607128130 -1.8580039300 0.4903563493
H 0.1418100927 1.6175486703 -0.7617443716
H -0.2587326724 1.0508005448 2.2056958328
H -0.9836988927 2.3591059838 1.2798451033
H 0.7622319347 2.3022535395 1.5086468360
H 2.0954551284 0.8538942014 0.3710721874
H 1.0678903705 -0.7285686337 2.0691118250
H 0.9048488730 -1.9111134102 0.7684645593
H 2.4925736634 -1.3161705204 1.2216031947
H 1.6590891589 0.3420988276 -2.0592469916
H 1.2229359270 -1.3006524041 -1.5825661750
H 2.8397792491 -0.6963902311 -1.2624997176
