22
 xtb: 6.7.1 (edcfbbe)
C            2.35279584348455        0.91309739788741        0.47209993225549
C            1.16027825837549       -0.03649201709349        0.48139637845885
C            1.47545493197990       -1.31860140705495       -0.31598925072222
C           -0.07908714879884        0.59901837402647       -0.11360021134257
O            0.01212467093740        1.56555563183397       -0.86722300664877
C           -1.46189372924535        0.02069860950376        0.16607245213565
C           -1.57605370859846       -0.85956445949526        1.40791895978881
C           -1.96111754697007       -0.71487001478599       -1.09129024654509
H            3.20514781443158        0.43833511724362        0.96739371999383
H            2.12569319263219        1.84515512061073        0.99839688609433
H            2.65007673668241        1.16256241741313       -0.55087332949953
H            0.93002151093260       -0.32884097423680        1.51185438743393
H            1.66010190354109       -1.07484852231283       -1.36768819963705
H            2.37830384989418       -1.78225373992851        0.09305299515611
H            0.66623796984701       -2.05064692961288       -0.26717623313158
H           -2.10072040688263        0.90374207291941        0.29877241827066
H           -0.99271600529101       -1.78043135737503        1.30963654322751
H           -1.24625132240550       -0.33397156773508        2.30909282336142
H           -2.62275488899289       -1.14528230390350        1.55285870689990
H           -1.89196793897797       -0.07662141642623       -1.97659111946952
H           -1.38209544010457       -1.62592793526311       -1.27105766000371
H           -3.00859828537868       -1.00028712418197       -0.95423176936356
