23
CONF1
C 1.8229002707 1.3257986564 0.0041614085
C 0.9925421918 0.3320895137 0.8100685243
C -0.0000655882 -0.5225042377 0.0000147575
C 0.7574306576 -1.4240179468 -0.9822618464
C -0.7586089176 -1.4230572938 0.9823557421
C -0.9916513634 0.3330987697 -0.8102091256
C -1.8225038029 1.3262573653 -0.0041444916
H 2.5004778938 1.8571419922 0.6692643192
H 1.1915161130 2.0598409022 -0.4889533280
H 2.4201570851 0.8194244372 -0.7490891564
H 1.6729451667 -0.3482653129 1.3287733869
H 0.4403417746 0.8777631166 1.5777031309
H 1.2444187938 -0.8383820966 -1.7574719684
H 0.0692324358 -2.1142371555 -1.4653942321
H 1.5146771808 -2.0054068856 -0.4610160504
H -1.2445104786 -0.8368367473 1.7577854131
H -1.5168527985 -2.0033121157 0.4613001387
H -0.0712822585 -2.1143028123 1.4652278887
H -0.4385299048 0.8793059688 -1.5767920034
H -1.6717882979 -0.3465365052 -1.3302023675
H -2.4981130935 1.8597096068 -0.6695471275
H -2.4219044410 0.8191727162 0.7468789765
H -1.1913029338 2.0585916563 0.4917121032
23
CONF3
C 2.5180902336 0.1710170021 0.6261343646
C 1.1796192771 0.8562039189 0.3687749697
C -0.0000153439 -0.0691235590 0.0000479183
C 0.3696734281 -0.9523548481 -1.1935752809
C -0.3702429543 -0.9518560843 1.1938577534
C -1.1791163642 0.8568310753 -0.3689216988
C -2.5179876293 0.1724078810 -0.6263175934
H 2.4418847574 -0.5633412625 1.4233554722
H 3.2524135854 0.9156100693 0.9257944435
H 2.8865344283 -0.3221627891 -0.2688810016
H 0.9016245375 1.4209731108 1.2623767729
H 1.3153768830 1.5772923145 -0.4415598385
H 0.7124005015 -0.3438923353 -2.0277920261
H -0.4882420880 -1.5333143258 -1.5208578670
H 1.1574867260 -1.6503288228 -0.9243815731
H -1.1584863821 -1.6494219795 0.9248489736
H 0.4872926744 -1.5332794756 1.5212935605
H -0.7125693600 -0.3430074973 2.0279558789
H -1.3144937439 1.5781568503 0.4412701459
H -0.9007221941 1.4212671953 -1.2626018820
H -2.4421343492 -0.5620470534 -1.4234817838
H -2.8867148685 -0.3204884466 0.2687274993
H -3.2518971558 0.9173911249 -0.9260719345
23
CONF2
C 1.8859007370 1.2233946744 0.9766464954
C 1.5510882075 0.1204941704 -0.0225717487
C 0.0785980661 -0.3407812320 -0.0573820261
C -0.0202826541 -1.4587898594 -1.1020036612
C -0.3313126338 -0.9011066380 1.3074174053
C -0.8203836553 0.8456029762 -0.4520332759
C -2.2894041534 0.5071826963 -0.6876717972
H 1.6446640021 0.9197543933 1.9914158835
H 1.3495462311 2.1404997854 0.7492967781
H 2.9513828405 1.4389313769 0.9337872409
H 1.8273527784 0.4621274713 -1.0235199440
H 2.1729117236 -0.7489054734 0.2059820174
H -1.0124760587 -1.9008482020 -1.1087080671
H 0.6959378594 -2.2462658989 -0.8771967479
H 0.1959306387 -1.0743635473 -2.0964885037
H 0.4015006239 -1.6279154950 1.6510930485
H -0.4083263295 -0.1096387603 2.0482088103
H -1.2944395077 -1.4006079987 1.2430205232
H -0.7695771069 1.5968020755 0.3380949190
H -0.4173038267 1.2962821997 -1.3627403139
H -2.8413351265 1.4198652800 -0.9025326723
H -2.4105135204 -0.1641602054 -1.5330822825
H -2.7311955054 0.0461487041 0.1914265438
23
CONF4
C 1.3945234115 1.4983871642 0.8402625086
C 1.4348201906 0.1697474505 0.0937883706
C 0.0847560872 -0.5361654061 -0.1463231845
C 0.3800311992 -1.7654812036 -1.0199296923
C -0.5055186066 -1.0294878730 1.1763511797
C -0.9082324775 0.3591836220 -0.9218121179
C -1.8363620849 1.2432956563 -0.0920017542
H 0.9040269793 1.3961578440 1.8045129597
H 0.8798683368 2.2588008910 0.2598089501
H 2.4113704554 1.8439473908 1.0163379334
H 1.9083127440 0.3376601758 -0.8772922099
H 2.0757966513 -0.5187156480 0.6507962906
H 1.1400678342 -2.3912413851 -0.5571010461
H 0.7393152597 -1.4607928843 -2.0006637756
H -0.5180727002 -2.3642105182 -1.1543434076
H -1.4472324620 -1.5444481916 1.0006431792
H 0.1810640495 -1.7287922631 1.6491140629
H -0.6845405087 -0.2103831741 1.8655719896
H -0.3364225687 0.9882567953 -1.6081133753
H -1.5409854498 -0.2875608304 -1.5348936256
H -2.5250453945 0.6410699854 0.4940127928
H -1.2873546482 1.8922071105 0.5821779259
H -2.4247214397 1.8692599050 -0.7603845068
