 xtb: 6.7.1 (edcfbbe)
          04112512333D

 21 20  0     0  0            999 V2000
    1.8521   -1.0696    0.3786 C   0  0  0  0  0  0  0  0  0  0  0  0
    1.2762    0.2586    0.8599 C   0  0  0  0  0  0  0  0  0  0  0  0
    0.1805    0.8662   -0.0341 C   0  0  0  0  0  0  0  0  0  0  0  0
   -0.0387    1.8653    0.3878 H   0  0  0  0  0  0  0  0  0  0  0  0
   -1.1779    0.1345   -0.1005 C   0  0  0  0  0  0  0  0  0  0  0  0
   -1.1410   -1.1766   -0.8830 C   0  0  0  0  0  0  0  0  0  0  0  0
   -1.7750   -0.0761    1.2877 C   0  0  0  0  0  0  0  0  0  0  0  0
    0.6317    1.0297   -1.3690 O   0  0  0  0  0  0  0  0  0  0  0  0
    2.8252   -1.2384    0.8341 H   0  0  0  0  0  0  0  0  0  0  0  0
    1.9714   -1.0582   -0.7018 H   0  0  0  0  0  0  0  0  0  0  0  0
    1.2084   -1.9016    0.6458 H   0  0  0  0  0  0  0  0  0  0  0  0
    0.8851    0.1585    1.8717 H   0  0  0  0  0  0  0  0  0  0  0  0
    2.0870    0.9922    0.9000 H   0  0  0  0  0  0  0  0  0  0  0  0
   -1.8293    0.8197   -0.6571 H   0  0  0  0  0  0  0  0  0  0  0  0
   -0.5786   -1.0430   -1.8027 H   0  0  0  0  0  0  0  0  0  0  0  0
   -0.6883   -1.9734   -0.3022 H   0  0  0  0  0  0  0  0  0  0  0  0
   -2.1552   -1.4762   -1.1373 H   0  0  0  0  0  0  0  0  0  0  0  0
   -1.7791    0.8533    1.8528 H   0  0  0  0  0  0  0  0  0  0  0  0
   -1.2102   -0.8206    1.8424 H   0  0  0  0  0  0  0  0  0  0  0  0
   -2.7993   -0.4277    1.1953 H   0  0  0  0  0  0  0  0  0  0  0  0
    1.4458    1.5502   -1.3624 H   0  0  0  0  0  0  0  0  0  0  0  0
  1  2  1  0  0  0  0
  2  3  1  0  0  0  0
  3  4  1  0  0  0  0
  3  5  1  0  0  0  0
  5  6  1  0  0  0  0
  5  7  1  0  0  0  0
  3  8  1  0  0  0  0
  1  9  1  0  0  0  0
  1 10  1  0  0  0  0
  1 11  1  0  0  0  0
  2 12  1  0  0  0  0
  2 13  1  0  0  0  0
  5 14  1  0  0  0  0
  6 15  1  0  0  0  0
  6 16  1  0  0  0  0
  6 17  1  0  0  0  0
  7 18  1  0  0  0  0
  7 19  1  0  0  0  0
  7 20  1  0  0  0  0
  8 21  1  0  0  0  0
M  END
