 xtb: 6.7.1 (edcfbbe)
          04072508273D

 16 15  0     0  0            999 V2000
   -2.9474   -0.3637   -0.1382 C   0  0  0  0  0  0  0  0  0  0  0  0
   -1.7447    0.4980    0.2273 C   0  0  0  0  0  0  0  0  0  0  0  0
   -0.4284   -0.2074   -0.0896 C   0  0  0  0  0  0  0  0  0  0  0  0
    0.7793    0.6611    0.2792 C   0  0  0  0  0  0  0  0  0  0  0  0
    2.0255   -0.0143   -0.0184 C   0  0  0  0  0  0  0  0  0  0  0  0
    3.0411   -0.5944   -0.2732 C   0  0  0  0  0  0  0  0  0  0  0  0
   -2.9278   -1.2997    0.4157 H   0  0  0  0  0  0  0  0  0  0  0  0
   -2.9410   -0.5958   -1.2009 H   0  0  0  0  0  0  0  0  0  0  0  0
   -3.8742    0.1547    0.0952 H   0  0  0  0  0  0  0  0  0  0  0  0
   -1.7928    1.4397   -0.3248 H   0  0  0  0  0  0  0  0  0  0  0  0
   -1.7802    0.7358    1.2931 H   0  0  0  0  0  0  0  0  0  0  0  0
   -0.3757   -1.1492    0.4617 H   0  0  0  0  0  0  0  0  0  0  0  0
   -0.3879   -0.4457   -1.1551 H   0  0  0  0  0  0  0  0  0  0  0  0
    0.7523    0.8979    1.3465 H   0  0  0  0  0  0  0  0  0  0  0  0
    0.7441    1.6004   -0.2797 H   0  0  0  0  0  0  0  0  0  0  0  0
    3.9378   -1.0921   -0.4917 H   0  0  0  0  0  0  0  0  0  0  0  0
  1  2  1  0  0  0  0
  2  3  1  0  0  0  0
  3  4  1  0  0  0  0
  4  5  1  0  0  0  0
  5  6  3  0  0  0  0
  1  7  1  0  0  0  0
  1  8  1  0  0  0  0
  1  9  1  0  0  0  0
  2 10  1  0  0  0  0
  2 11  1  0  0  0  0
  3 12  1  0  0  0  0
  3 13  1  0  0  0  0
  4 14  1  0  0  0  0
  4 15  1  0  0  0  0
  6 16  1  0  0  0  0
M  END
