  17
 
 C          2.1893910622       -0.9918914535        0.4500510948
 C          1.1581298588        0.1053603800        0.2322019194
 C          1.6187810279        1.1354371982       -0.7931058505
 O         -0.0457447534       -0.5288524408       -0.2335039221
 C         -1.2101400192        0.0468919244        0.0689505681
 O         -1.3209417029        1.0608798788        0.7060508604
 C         -2.3612559524       -0.7606123125       -0.4756691413
 H          1.8225177245       -1.7180158468        1.1707154115
 H          2.3886807860       -1.5034162692       -0.4881328951
 H          3.1130846736       -0.5594932250        0.8232730411
 H          0.9255559810        0.6109278341        1.1786299499
 H          0.8533101073        1.8965024709       -0.9248063952
 H          1.8050939062        0.6518519971       -1.7495628948
 H          2.5323417449        1.6137361243       -0.4517181966
 H         -2.6443882384       -1.5046221783        0.2662794177
 H         -2.0634691028       -1.2709849929       -1.3863187013
 H         -3.2107653520       -0.1089683145       -0.6565221075
          17
        -23.95669165
 C          2.2041123173        1.0170837980       -0.3984314792
 C          1.1583923091       -0.0770003215       -0.2410201705
 C          1.5789653512       -1.1369653453        0.7713895426
 O         -0.0543016364        0.5586742822        0.1994762439
 C         -1.2104083424       -0.0359409861       -0.0971834211
 O         -1.3060156842       -1.0585144799       -0.7238478975
 C         -2.3728396889        0.7426403088        0.4649261398
 H          3.1339126888        0.5880066518       -0.7600807561
 H          1.8617499411        1.7673834934       -1.1062784050
 H          2.3822900336        1.4986115785        0.5596331074
 H          0.9520766082       -0.5569425449       -1.2066975080
 H          0.8072960366       -1.8985458367        0.8538227519
 H          1.7328074084       -0.6807540496        1.7468102022
 H          2.5026712749       -1.6086657906        0.4490505284
 H         -2.0942296061        1.7811264693        0.6121206956
 H         -2.6463824458        0.3088326340        1.4250055283
 H         -3.2242574795        0.6599868046       -0.2041352192
