 17

C      1.077000     0.050000     0.196000
C      1.353000     0.919000     1.413000
C      2.843000     1.038000     1.698000
O      0.812000     2.218000     1.194000
C      0.375000     2.874000     2.310000
O      0.407000     2.448000     3.457000
C     -0.164000     4.220000     1.929000
H      0.003000    -0.029000     0.000000
H      1.564000     0.469000    -0.691000
H      1.483000    -0.959000     0.331000
H      0.847000     0.496000     2.287000
H      3.031000     1.665000     2.575000
H      3.361000     1.475000     0.837000
H      3.291000     0.053000     1.868000
H     -1.232000     4.143000     1.710000
H      0.381000     4.606000     1.065000
H     -0.029000     4.914000     2.764000
