 xtb: 6.7.1 (edcfbbe)
          04112512193D

 17 16  0     0  0            999 V2000
   -2.4870    0.4244    0.8816 C   0  0  0  0  0  0  0  0  0  0  0  0
   -1.7513    0.5699   -0.4530 C   0  0  0  0  0  0  0  0  0  0  0  0
   -0.4902   -0.2560   -0.4372 C   0  0  0  0  0  0  0  0  0  0  0  0
   -0.3424   -1.3026   -1.0356 O   0  0  0  0  0  0  0  0  0  0  0  0
    0.4355    0.2937    0.3333 O   0  0  0  0  0  0  0  0  0  0  0  0
    1.7112   -0.3524    0.4836 C   0  0  0  0  0  0  0  0  0  0  0  0
    2.8169    0.6435    0.1770 C   0  0  0  0  0  0  0  0  0  0  0  0
   -3.3956    1.0185    0.8648 H   0  0  0  0  0  0  0  0  0  0  0  0
   -2.7528   -0.6155    1.0563 H   0  0  0  0  0  0  0  0  0  0  0  0
   -1.8559    0.7670    1.6971 H   0  0  0  0  0  0  0  0  0  0  0  0
   -1.4799    1.6136   -0.6085 H   0  0  0  0  0  0  0  0  0  0  0  0
   -2.3776    0.2215   -1.2734 H   0  0  0  0  0  0  0  0  0  0  0  0
    1.7687   -0.6949    1.5201 H   0  0  0  0  0  0  0  0  0  0  0  0
    1.7453   -1.2152   -0.1886 H   0  0  0  0  0  0  0  0  0  0  0  0
    2.7256    1.5092    0.8266 H   0  0  0  0  0  0  0  0  0  0  0  0
    3.7801    0.1716    0.3413 H   0  0  0  0  0  0  0  0  0  0  0  0
    2.7540    0.9719   -0.8571 H   0  0  0  0  0  0  0  0  0  0  0  0
  1  2  1  0  0  0  0
  2  3  1  0  0  0  0
  3  4  2  0  0  0  0
  3  5  1  0  0  0  0
  5  6  1  0  0  0  0
  6  7  1  0  0  0  0
  1  8  1  0  0  0  0
  1  9  1  0  0  0  0
  1 10  1  0  0  0  0
  2 11  1  0  0  0  0
  2 12  1  0  0  0  0
  6 13  1  0  0  0  0
  6 14  1  0  0  0  0
  7 15  1  0  0  0  0
  7 16  1  0  0  0  0
  7 17  1  0  0  0  0
M  END
