  5
 
 C         -1.2322599891        0.0001832586       -0.0000848499
 Cl         0.5450149056        0.0000993640       -0.0000998482
 H         -1.5715986134       -0.0354911019       -1.0301786006
 H         -1.5716413028       -0.8741201796        0.5458513182
 H         -1.5715464646        0.9100663913        0.4841430566
           5
         -8.21035275
 C         -1.2275547027       -0.0000073154        0.0000118424
 Cl         0.5495800367        0.0000004713       -0.0000007193
 H         -1.5676514205        0.9635314775        0.3664328782
 H         -1.5676523991       -0.1643551490       -1.0176923026
 H         -1.5676443960       -0.7991057309        0.6511436004
