 20

C      1.905000     1.936000    -0.394000
C      1.735000     0.623000    -1.143000
C      1.001000     0.771000    -2.477000
C      0.804000    -0.523000    -3.273000
C      0.066000    -0.317000    -4.595000
C     -0.109000    -1.615000    -5.350000
O      0.280000    -2.712000    -4.977000
O     -0.760000    -1.419000    -6.527000
H      2.435000     1.765000     0.549000
H      2.485000     2.653000    -0.983000
H      0.938000     2.387000    -0.151000
H      2.729000     0.206000    -1.342000
H      1.220000    -0.100000    -0.502000
H      0.015000     1.217000    -2.292000
H      1.551000     1.489000    -3.098000
H      1.771000    -1.005000    -3.456000
H      0.234000    -1.222000    -2.647000
H      0.626000     0.370000    -5.239000
H     -0.928000     0.101000    -4.399000
H     -1.019000    -0.490000    -6.708000
