21
CONF1
C -3.2430791513 1.1810413423 0.1925843915
C -1.9011799307 0.7914035400 -0.3325371484
O -1.6896235260 0.1933262063 -1.3642628399
O -0.9242199708 1.2114837041 0.4848697857
C 0.3930046044 0.8341218756 0.2552208918
C 1.3410754907 1.8421551329 0.1708653672
C 2.6711954734 1.5221538416 -0.0380960592
C 3.0555261521 0.1978992908 -0.1823378701
C 2.1126361606 -0.8079845171 -0.0998105243
C 0.7703178520 -0.5068298328 0.1310095850
C -0.2187599652 -1.5982867493 0.2739878668
O -1.2627876208 -1.5073762702 0.8946672836
O 0.1550082825 -2.7188549532 -0.3190107938
H -3.9570280548 1.2343208611 -0.6226189397
H -3.1760039064 2.1211332672 0.7302871867
H -3.5526902970 0.4026670442 0.8889386876
H 1.0179729165 2.8657235696 0.2709135818
H 3.4042594275 2.3105319285 -0.0962933279
H 4.0897255858 -0.0507063480 -0.3564223384
H 2.3978156656 -1.8427868950 -0.2010069167
H -0.5017534378 -3.4344257861 -0.2120864226
21
CONF2
C -3.2389833815 1.2796170498 0.1361846554
C -1.9070789396 0.7833164456 -0.3241178606
O -1.7025151862 0.1357270539 -1.3271627605
O -0.9302700192 1.1979226015 0.4945187158
C 0.3890004607 0.8257960069 0.2643564822
C 1.3308369423 1.8401085275 0.1827241502
C 2.6620975409 1.5290649234 -0.0318947577
C 3.0533813172 0.2079990232 -0.1862725367
C 2.1164185131 -0.8038228135 -0.1069539693
C 0.7737015844 -0.5115046859 0.1313668988
C -0.2086899425 -1.6095066326 0.2751478777
O -1.2308551674 -1.5387969498 0.9328727389
O 0.1501240374 -2.7117166136 -0.3602506085
H -4.0033234829 0.5574373028 -0.1326229286
H -3.4518050801 2.2171083703 -0.3740889305
H -3.2189203028 1.4492083475 1.2073032602
H 1.0019549808 2.8611390292 0.2901540924
H 3.3905173138 2.3219261999 -0.0874917795
H 4.0882676549 -0.0336082835 -0.3659440799
H 2.4068704333 -1.8363971531 -0.2157046565
H -0.5001508699 -3.4329279789 -0.2521959250
21
CONF3
C -3.1799648526 1.2351195527 -0.6741053736
C -1.9155450514 0.8109053396 -0.0014643990
O -1.8271081640 0.3217082592 1.1030810754
O -0.8540623590 1.0742014770 -0.7785450101
C 0.4279012598 0.7534943541 -0.3528676235
C 1.3685770670 1.7732626052 -0.3723365850
C 2.6665127260 1.5280768208 0.0383563179
C 3.0261895521 0.2696137752 0.4964598334
C 2.0908164764 -0.7453694567 0.5185194767
C 0.7854792170 -0.5263250205 0.0771116369
C -0.1384778234 -1.6836355249 0.0781844893
O -0.0267472096 -2.6232057090 0.8395605366
O -1.0683418416 -1.6514719424 -0.8694048156
H -4.0330202032 0.8866774966 -0.1018929540
H -3.1993148017 0.8396481145 -1.6854619142
H -3.1963079825 2.3207989837 -0.7357643739
H 1.0624400413 2.7499134586 -0.7108435701
H 3.3923735884 2.3247142144 0.0124811152
H 4.0319355314 0.0797964200 0.8340557177
H 2.3434754305 -1.7353440854 0.8659858701
H -1.6084689885 -2.4664194362 -0.8667645533
21
CONF5
C -3.3015171433 1.3545427395 -0.0330083884
C -1.9065353198 1.1505195687 -0.5274813825
O -1.5271161718 1.3044710971 -1.6664036174
O -1.0923869915 0.7744839842 0.4699819109
C 0.2621213236 0.5915410299 0.2158912676
C 1.0585834273 1.6969709445 -0.0391964326
C 2.4202242510 1.5434620715 -0.2345178029
C 2.9958565614 0.2838413728 -0.1708951065
C 2.2039424108 -0.8186635138 0.0771129075
C 0.8267320737 -0.6875350229 0.2656038228
C 0.0489956738 -1.9266590041 0.4898341241
O 0.5698867137 -3.0216921277 0.5953873143
O -1.2642856571 -1.7702469406 0.5530451971
H -3.4805582789 0.7282457418 0.8342087972
H -4.0049784850 1.1397984245 -0.8308943078
H -3.4130091573 2.3978260195 0.2562901619
H 0.5986916480 2.6719099563 -0.0840090523
H 3.0288220755 2.4106368101 -0.4345002381
H 4.0565477088 0.1626101136 -0.3183839242
H 2.6212989507 -1.8128400675 0.1251491324
H -1.7196293969 -2.6234717007 0.6974072614
21
CONF4
C -3.3052580118 1.1374201931 -0.7396280768
C -1.9335616281 1.3209836458 -0.1758708877
O -1.6196442677 2.1275345438 0.6697526142
O -1.0732701658 0.4446164705 -0.7166541870
C 0.2616538979 0.4370356846 -0.3390363831
C 1.0314765145 1.5827161332 -0.4712627537
C 2.3791936372 1.5548328749 -0.1565629871
C 2.9710921570 0.3796094598 0.2793556303
C 2.2082804624 -0.7633784812 0.4070179984
C 0.8443146020 -0.7536142657 0.1116168076
C 0.0965320012 -2.0167998875 0.3032968704
O 0.6453321256 -3.0789428356 0.5324019065
O -1.2203689560 -1.9123160282 0.2283514271
H -3.7850545633 2.1052566213 -0.8496333014
H -3.8863995610 0.5485872465 -0.0329506241
H -3.2523871127 0.6097766957 -1.6855381868
H 0.5650796254 2.4915508173 -0.8177588681
H 2.9653183729 2.4539069100 -0.2591967077
H 4.0216849157 0.3558731439 0.5184559379
H 2.6394155709 -1.6935882246 0.7441790778
H -1.6582863768 -2.7767675332 0.3587075093
21
CONF7
C -1.9039766946 1.2266354909 1.1657842771
C -2.0148824772 1.0034218954 -0.3110581044
O -3.0476134767 1.0594965126 -0.9358573775
O -0.8846859161 0.7504046468 -0.9911637551
C 0.3539503431 0.6302730894 -0.3722554120
C 1.2000366069 1.7296775317 -0.3557308748
C 2.4803426993 1.6102684970 0.1577860876
C 2.9271252111 0.3905140562 0.6418944618
C 2.0940554329 -0.7112365658 0.6129907317
C 0.7960796768 -0.6059322392 0.1136782057
C -0.0951998632 -1.7893125316 0.1078583912
O -1.3096029904 -1.7360677746 0.1729188886
O 0.5659849810 -2.9321246204 0.0502047785
H -1.7059308941 0.2668397925 1.6401126012
H -2.8466502445 1.6190483328 1.5329646214
H -1.0873408787 1.9073942957 1.3929418919
H 0.8425591688 2.6655928671 -0.7553603391
H 3.1280060950 2.4719390099 0.1729709731
H 3.9256505556 0.2972808307 1.0364110054
H 2.4295436139 -1.6676209405 0.9803731675
H -0.0253663170 -3.7099863369 0.0622842820
