21
CONF3
C -3.1839039996 1.2303802385 -0.6779796502
C -1.9085352238 0.9099566260 0.0155171268
O -1.7695710104 0.5951319605 1.1762334700
O -0.8436177788 1.0356472042 -0.8493456649
C 0.4315534129 0.7287955978 -0.3686817411
C 1.3406510717 1.7746040286 -0.3297863950
C 2.6423213229 1.5397347942 0.0985983801
C 3.0244983273 0.2642461087 0.5071916402
C 2.1036991309 -0.7720796329 0.4801108573
C 0.7937629130 -0.5657154523 0.0280800083
C -0.1091896104 -1.7417388139 0.0217054284
O 0.0487329479 -2.7100792141 0.7468087810
O -1.1046190071 -1.6674746276 -0.8825361822
H -4.0245241743 1.0324847536 -0.0145033424
H -3.2682849227 0.6388029209 -1.5937131181
H -3.1787507860 2.2865081218 -0.9669297896
H 1.0167218497 2.7639738463 -0.6335222921
H 3.3539092321 2.3583868979 0.1201685556
H 4.0375526305 0.0784136951 0.8463504939
H 2.3897371726 -1.7698345305 0.7939106339
H -1.6437966626 -2.4739827340 -0.8033398273
21
CONF1
C -3.2507253929 1.2301383471 0.1773527246
C -1.9040372333 0.9023009068 -0.3599626647
O -1.6467466921 0.4746943891 -1.4629954129
O -0.9313020762 1.1476601983 0.5834727683
C 0.3822393820 0.7812911459 0.2833819876
C 1.3008576485 1.8127463475 0.1797629641
C 2.6391438360 1.5197923558 -0.0589023455
C 3.0491974421 0.1975583114 -0.2067536966
C 2.1205544167 -0.8290094100 -0.1147357939
C 0.7680542467 -0.5600379020 0.1393174235
C -0.1996799283 -1.6696165107 0.2903081168
O -1.2806342380 -1.5919012198 0.8518401130
O 0.2470164872 -2.8207388413 -0.2565266067
H -3.9727532543 1.2752096928 -0.6369817734
H -3.2297558861 2.1706549059 0.7320441654
H -3.5402613143 0.4373194318 0.8765830747
H 0.9571628275 2.8356526986 0.2873208632
H 3.3588704064 2.3282770508 -0.1323690736
H 4.0921069766 -0.0345418468 -0.3921540824
H 2.4418755900 -1.8577638040 -0.2223001119
H -0.4197768256 -3.5089836320 -0.0888783140
21
CONF2
C -3.2493134622 1.2884122154 0.1241840710
C -1.9045749992 0.9174134247 -0.3911026722
O -1.6402165723 0.4985947573 -1.4956716582
O -0.9377225765 1.1562516499 0.5597988844
C 0.3758102717 0.7900074386 0.2596943220
C 1.2900566008 1.8222746804 0.1300929145
C 2.6284139657 1.5292120103 -0.1070019222
C 3.0424883630 0.2052064898 -0.2253146562
C 2.1186038245 -0.8223646532 -0.1046134360
C 0.7648279411 -0.5538986567 0.1463307789
C -0.1999051625 -1.6630254607 0.3201184719
O -1.3156354688 -1.5621761974 0.8050347974
O 0.2898670975 -2.8458098983 -0.1116442202
H -4.0171834715 0.9342200424 -0.5623144489
H -3.3068280567 2.3796267321 0.2040159987
H -3.4015812351 0.8747428706 1.1239465169
H 0.9422697930 2.8457234811 0.2173219443
H 3.3449599181 2.3382744103 -0.2019789393
H 4.0853793808 -0.0275368064 -0.4098304152
H 2.4452409866 -1.8512560758 -0.1901804629
H -0.3843725294 -3.5258276323 0.0590554169
21
CONF5
C -3.3007850474 1.2868243107 -0.0177215025
C -1.9244950443 0.9872976905 -0.4953952275
O -1.5751649363 0.8151484534 -1.6423264925
O -1.0386827155 0.9550393578 0.5548232936
C 0.2984435709 0.6855050500 0.2437965206
C 1.1269821355 1.7735124434 0.0181215558
C 2.4821228193 1.5697866398 -0.2130033790
C 3.0045446503 0.2781666068 -0.2068391528
C 2.1696585446 -0.8020355357 0.0306282852
C 0.7959205993 -0.6244463878 0.2502522652
C -0.0071211393 -1.8481231377 0.4920866482
O 0.4897804177 -2.9200239763 0.7996677429
O -1.3326516147 -1.6915957651 0.3217007421
H -3.5318533230 0.7104662136 0.8807627613
H -4.0194069158 1.0774169674 -0.8090681160
H -3.3522635252 2.3491952922 0.2457845256
H 0.6994298925 2.7702838960 0.0306411584
H 3.1288704566 2.4218342173 -0.3938288627
H 4.0618108911 0.1149622146 -0.3841054310
H 2.5666118405 -1.8107428168 0.0382987746
H -1.7600669629 -2.5487260783 0.4963161875
21
CONF4
C -3.2891826233 1.0596070250 -0.7247171689
C -1.9379866016 1.0930834483 -0.1043611128
O -1.6668833673 1.4678977800 1.0154944637
O -0.9852837144 0.6082151805 -0.9672265052
C 0.3217239166 0.5191421285 -0.4733628952
C 1.1484546741 1.6143381379 -0.6686662646
C 2.4782174804 1.5514595326 -0.2696890397
C 2.9777118831 0.3884650259 0.3126719774
C 2.1460606240 -0.7056583507 0.4909730840
C 0.7963894661 -0.6612608593 0.1129220035
C -0.0074946456 -1.8852212587 0.3500852347
O 0.4918788456 -2.9820872823 0.5453542228
O -1.3377102712 -1.6866166581 0.3604549551
H -3.9463615425 1.7623004728 -0.2121865838
H -3.6891673387 0.0456070510 -0.6017039114
H -3.2408478622 1.2751373667 -1.7937192241
H 0.7398197105 2.5036915542 -1.1361288824
H 3.1232391234 2.4110452300 -0.4178155573
H 4.0149372509 0.3348156218 0.6242136387
H 2.5258454436 -1.6153194782 0.9421737996
H -1.7682335311 -2.5443909872 0.5243782678
