 11

C     -0.553000    -0.279000     0.903000
C      0.385000    -0.443000     2.087000
C      1.131000     0.819000     2.389000
H     -1.090000    -1.210000     0.696000
H     -1.298000     0.500000     1.097000
H      0.009000    -0.000000     0.006000
H     -0.191000    -0.742000     2.970000
H      1.101000    -1.244000     1.877000
H      1.796000     0.663000     3.247000
H      0.438000     1.629000     2.640000
H      1.744000     1.121000     1.534000
