  11
 
 C         -0.5530000000       -0.2790000000        0.9030000000
 C          0.3850000000       -0.4430000000        2.0870000000
 C          1.1310000000        0.8190000000        2.3890000000
 H         -1.0900000000       -1.2100000000        0.6960000000
 H         -1.2980000000        0.5000000000        1.0970000000
 H          0.0090000000        0.0000000000        0.0060000000
 H         -0.1910000000       -0.7420000000        2.9700000000
 H          1.1010000000       -1.2440000000        1.8770000000
 H          1.7960000000        0.6630000000        3.2470000000
 H          0.4380000000        1.6290000000        2.6400000000
 H          1.7440000000        1.1210000000        1.5340000000
