21
 xtb: 6.7.1 (edcfbbe)
C            1.49669354601450        0.12645124924302       -1.17079775275748
C            1.11770730579054       -0.22977257320932        0.25317788404933
H            0.99091369063412       -1.31931323616136        0.32981699782678
C           -0.13148134216016        0.46982822812930        0.79228744062788
C           -1.49614911039695        0.13282687898571        0.15627381598274
C           -1.76191045208213        0.84449746891053       -1.17344724911368
C           -1.72243042440095       -1.37424967451741        0.02196690796392
O            2.25588134148474        0.15237506380286        1.07498494006605
H            1.49905448324811        1.21228491413323       -1.31778313048063
H            2.49535910734796       -0.26044251063014       -1.39808924321095
H            0.79827400589405       -0.32019638089134       -1.88135807480761
H           -0.19402876617383        0.21327380890439        1.85940814649039
H            0.03557165937651        1.55420112743532        0.73627429867355
H           -2.24287822248943        0.51347743819987        0.86647306084447
H           -1.15459190053264        0.44041958643954       -1.98835612275043
H           -1.55641495266206        1.91787967825911       -1.09771351090578
H           -2.81243079897914        0.72344784697523       -1.46098628043620
H           -1.53640731205698       -1.89452422620507        0.96843976367731
H           -2.75535314648876       -1.58143456346533       -0.27856876636361
H           -1.06474624977264       -1.80955431495397       -0.73910515420443
H            2.02836695226332       -0.05347391654930        1.99116328718219
