17
 xtb: 6.7.1 (edcfbbe)
C            1.64357151627616       -0.77385106323719        0.50888855884630
C            1.37088393677638        0.53906661326405       -0.22188606519788
C           -0.03050195202574        0.65512261158252       -0.83166674810114
C           -1.18677546285133        0.55044213984193        0.18075434148452
C           -1.78509102565975       -0.85171751419022        0.30169619021327
H            1.48839384349195       -1.63479049145337       -0.15155210992412
H            0.98921058380251       -0.89467468715814        1.37798199936687
H            2.67715247226994       -0.81071987713493        0.86942630588727
H            1.52273512657207        1.37583088283608        0.47297649232494
H            2.11159028562080        0.66480502342294       -1.02183574567497
H           -0.15598591073907       -0.11711242972156       -1.60348782501517
H           -0.08918719897990        1.61863538323837       -1.35152823959451
H           -0.83766295929853        0.89131049563759        1.16486154786074
H           -1.98828351507942        1.23928863855489       -0.11110837215453
H           -2.21381734225593       -1.16970774792289       -0.65539689311893
H           -2.58527789962954       -0.87770999452395        1.04949581073071
H           -1.03478291964444       -1.59419158706906        0.58921579141536
