  16
 
 C          3.7680000000        0.7170000000        1.4130000000
 C          2.3220000000        0.8750000000        1.0600000000
 O          2.0050000000        1.7850000000        0.3010000000
 C          1.3880000000       -0.0680000000        1.6520000000
 C          0.2270000000       -0.4200000000        0.9730000000
 C         -0.6320000000       -1.3220000000        1.5800000000
 N         -0.4090000000       -1.8820000000        2.7910000000
 C          0.7300000000       -1.5160000000        3.4210000000
 C          1.6520000000       -0.6230000000        2.9000000000
 H          4.0770000000        1.2820000000        2.3070000000
 H          4.4490000000        0.9960000000        0.5940000000
 H          4.0390000000       -0.3260000000        1.6550000000
 H         -0.0110000000       -0.0050000000       -0.0010000000
 H         -1.5510000000       -1.6280000000        1.0930000000
 H          0.8890000000       -1.9760000000        4.3900000000
 H          2.5480000000       -0.3690000000        3.4560000000
