 xtb: 6.7.1 (edcfbbe)
          04112512383D

 23 22  0     0  0            999 V2000
   -1.8105   -1.0178    0.5133 C   0  0  0  0  0  0  0  0  0  0  0  0
   -1.1776   -0.1269   -0.5533 C   0  0  0  0  0  0  0  0  0  0  0  0
   -2.2279    0.8294   -1.1190 C   0  0  0  0  0  0  0  0  0  0  0  0
   -0.0000    0.6844    0.0002 C   0  0  0  0  0  0  0  0  0  0  0  0
    1.1776   -0.1271    0.5532 C   0  0  0  0  0  0  0  0  0  0  0  0
    1.8106   -1.0174   -0.5139 C   0  0  0  0  0  0  0  0  0  0  0  0
    2.2278    0.8290    1.1195 C   0  0  0  0  0  0  0  0  0  0  0  0
   -2.6929   -1.5129    0.1138 H   0  0  0  0  0  0  0  0  0  0  0  0
   -1.1169   -1.7844    0.8480 H   0  0  0  0  0  0  0  0  0  0  0  0
   -2.1109   -0.4229    1.3733 H   0  0  0  0  0  0  0  0  0  0  0  0
   -0.8211   -0.7598   -1.3721 H   0  0  0  0  0  0  0  0  0  0  0  0
   -1.7969    1.4602   -1.8932 H   0  0  0  0  0  0  0  0  0  0  0  0
   -3.0569    0.2741   -1.5517 H   0  0  0  0  0  0  0  0  0  0  0  0
   -2.6186    1.4710   -0.3319 H   0  0  0  0  0  0  0  0  0  0  0  0
   -0.3761    1.3317    0.7971 H   0  0  0  0  0  0  0  0  0  0  0  0
    0.3760    1.3322   -0.7964 H   0  0  0  0  0  0  0  0  0  0  0  0
    0.8212   -0.7604    1.3717 H   0  0  0  0  0  0  0  0  0  0  0  0
    2.1110   -0.4220   -1.3735 H   0  0  0  0  0  0  0  0  0  0  0  0
    2.6931   -1.5126   -0.1146 H   0  0  0  0  0  0  0  0  0  0  0  0
    1.1171   -1.7838   -0.8490 H   0  0  0  0  0  0  0  0  0  0  0  0
    2.6184    1.4710    0.3326 H   0  0  0  0  0  0  0  0  0  0  0  0
    1.7968    1.4593    1.8939 H   0  0  0  0  0  0  0  0  0  0  0  0
    3.0569    0.2736    1.5518 H   0  0  0  0  0  0  0  0  0  0  0  0
  1  2  1  0  0  0  0
  2  3  1  0  0  0  0
  2  4  1  0  0  0  0
  4  5  1  0  0  0  0
  5  6  1  0  0  0  0
  5  7  1  0  0  0  0
  1  8  1  0  0  0  0
  1  9  1  0  0  0  0
  1 10  1  0  0  0  0
  2 11  1  0  0  0  0
  3 12  1  0  0  0  0
  3 13  1  0  0  0  0
  3 14  1  0  0  0  0
  4 15  1  0  0  0  0
  4 16  1  0  0  0  0
  5 17  1  0  0  0  0
  6 18  1  0  0  0  0
  6 19  1  0  0  0  0
  6 20  1  0  0  0  0
  7 21  1  0  0  0  0
  7 22  1  0  0  0  0
  7 23  1  0  0  0  0
M  END
