 xtb: 6.7.1 (edcfbbe)
          04112512333D

 21 20  0     0  0            999 V2000
    1.7908   -0.8282    1.2025 C   0  0  0  0  0  0  0  0  0  0  0  0
    1.4734   -0.2495   -0.1692 C   0  0  0  0  0  0  0  0  0  0  0  0
    0.2874    0.7219   -0.2139 C   0  0  0  0  0  0  0  0  0  0  0  0
    0.4564    1.5020    0.5484 H   0  0  0  0  0  0  0  0  0  0  0  0
   -1.1208    0.1277    0.0183 C   0  0  0  0  0  0  0  0  0  0  0  0
   -1.3335   -1.1879   -0.7265 C   0  0  0  0  0  0  0  0  0  0  0  0
   -1.4697   -0.0142    1.4986 C   0  0  0  0  0  0  0  0  0  0  0  0
    0.3604    1.3217   -1.5031 O   0  0  0  0  0  0  0  0  0  0  0  0
    2.7652   -1.3098    1.1763 H   0  0  0  0  0  0  0  0  0  0  0  0
    1.0582   -1.5729    1.4987 H   0  0  0  0  0  0  0  0  0  0  0  0
    1.8154   -0.0433    1.9545 H   0  0  0  0  0  0  0  0  0  0  0  0
    2.3336    0.3236   -0.5242 H   0  0  0  0  0  0  0  0  0  0  0  0
    1.3051   -1.0485   -0.8905 H   0  0  0  0  0  0  0  0  0  0  0  0
   -1.8205    0.8613   -0.4054 H   0  0  0  0  0  0  0  0  0  0  0  0
   -1.0213   -1.0860   -1.7635 H   0  0  0  0  0  0  0  0  0  0  0  0
   -0.7664   -1.9920   -0.2656 H   0  0  0  0  0  0  0  0  0  0  0  0
   -2.3865   -1.4592   -0.7073 H   0  0  0  0  0  0  0  0  0  0  0  0
   -1.3008    0.9225    2.0251 H   0  0  0  0  0  0  0  0  0  0  0  0
   -0.8764   -0.7876    1.9743 H   0  0  0  0  0  0  0  0  0  0  0  0
   -2.5191   -0.2804    1.6012 H   0  0  0  0  0  0  0  0  0  0  0  0
   -0.3246    1.9989   -1.5832 H   0  0  0  0  0  0  0  0  0  0  0  0
  1  2  1  0  0  0  0
  2  3  1  0  0  0  0
  3  4  1  0  0  0  0
  3  5  1  0  0  0  0
  5  6  1  0  0  0  0
  5  7  1  0  0  0  0
  3  8  1  0  0  0  0
  1  9  1  0  0  0  0
  1 10  1  0  0  0  0
  1 11  1  0  0  0  0
  2 12  1  0  0  0  0
  2 13  1  0  0  0  0
  5 14  1  0  0  0  0
  6 15  1  0  0  0  0
  6 16  1  0  0  0  0
  6 17  1  0  0  0  0
  7 18  1  0  0  0  0
  7 19  1  0  0  0  0
  7 20  1  0  0  0  0
  8 21  1  0  0  0  0
M  END
