14
 xtb: 6.7.1 (edcfbbe)
C           -1.06695713837783       -0.61869736186069       -0.11385973180215
C            0.00762045419028        0.20981564853240        0.57222276805020
C            1.34421797590059       -0.50569549862548        0.64322829066776
O            1.85127596759928       -0.87405363350748       -0.64741161067656
O            0.21774031704469        1.44671535024321       -0.13305304087225
O           -2.29199607053989        0.12485618147201       -0.23985165504082
H           -1.22786833603808       -1.54919795631254        0.44717105834417
H           -0.76225836499689       -0.86825299829410       -1.13397851309671
H           -0.31287255320115        0.42014995809475        1.60669856084978
H            1.22864855391922       -1.43243472752875        1.21296618415984
H            2.06520016958226        0.13462379233083        1.17050467655447
H            1.92840435257836       -0.06007294659213       -1.16307378246034
H           -0.65911903844043        1.78002845813830       -0.37234042412707
H           -2.62731320467194        0.28703832591203        0.65241810902505
