21
 xtb: 6.7.1 (edcfbbe)
C           -3.21753737230294        1.40430429518246       -0.00272066107463
C           -2.56539595528996        0.04986745693633        0.00028798658263
O           -3.25783486923237       -0.97435254301286        0.00232226947315
C           -1.09189621489313       -0.03659104529448       -0.00010779226706
C           -0.27900470620215        1.10396035566514       -0.00217784790892
C            1.10601514791686        1.00656536188376       -0.00201404729651
C            1.70073222458179       -0.25968303125211        0.00023358744444
C            0.90213475456835       -1.41465589930781        0.00214120132812
C           -0.47100917440391       -1.29930090991933        0.00194555865476
O            3.04171410697197       -0.47498147475118        0.00073454404333
C            3.90602896148405        0.67692278693737       -0.00077625899014
H           -2.91212685909189        1.98062671794068        0.87715215469112
H           -4.30158147729345        1.28671417883038       -0.00293565790547
H           -2.91136446186461        1.97748164667237       -0.88436978275487
H           -0.72398745035585        2.09263069539189       -0.00385181760149
H            1.70419786071803        1.90888080828962       -0.00359155404607
H            1.38435967768703       -2.38666952728188        0.00382078089327
H           -1.08606985913091       -2.19269310614651        0.00356297941926
H            4.92088890396920        0.27928171607951        0.00053551998254
H            3.74510140479256        1.28370308401709        0.89624145301685
H            3.74617147396888        1.28054395823455       -0.90011971293531
