  11
 
 C         -2.5393374346        0.0753920782        0.0038911202
 C         -1.1296896985       -0.5067639595       -0.0092534316
 C         -0.0915394006        0.6028810394       -0.0044903473
 Cl         1.5599398636       -0.0753183161       -0.0049843692
 H         -3.2752459251       -0.7239875286       -0.0000093778
 H         -2.6944614070        0.6820854312        0.8928083090
 H         -2.7040072384        0.6993554506       -0.8713576749
 H         -0.9836394854       -1.1409667082        0.8667630433
 H         -0.9935648428       -1.1251433591       -0.8979955146
 H         -0.1774856830        1.2217267674        0.8888571866
 H         -0.1746961000        1.2283077433       -0.8933493772
          11
        -14.54276884
 C         -2.5268165849        0.0745459814       -0.0001508616
 C         -1.1176878158       -0.5079794477        0.0001347463
 C         -0.0785137182        0.6005105046        0.0001228062
 Cl         1.5716104141       -0.0802551527       -0.0000552057
 H         -3.2627854588       -0.7249680134        0.0002652508
 H         -2.6872714018        0.6905548606        0.8816774719
 H         -2.6871215060        0.6896150780       -0.8824739323
 H         -0.9770277805       -1.1344821833        0.8827661197
 H         -0.9767389741       -1.1348150883       -0.8822154368
 H         -0.1618823481        1.2226657852        0.8914061847
 H         -0.1620781618        1.2233807688       -0.8907552111
