  11
 
 C          0.3670000000        0.5010000000        0.9010000000
 C          0.8900000000       -0.5270000000        1.8940000000
 C          1.5180000000        0.0930000000        3.1360000000
 Cl         2.1150000000       -1.1410000000        4.2690000000
 H         -0.0740000000        0.0130000000        0.0270000000
 H         -0.4060000000        1.1170000000        1.3710000000
 H          1.1610000000        1.1720000000        0.5580000000
 H          0.0770000000       -1.2050000000        2.1790000000
 H          1.6480000000       -1.1390000000        1.3900000000
 H          0.8000000000        0.7220000000        3.6710000000
 H          2.3740000000        0.7140000000        2.8540000000
