 xtb: 6.7.1 (edcfbbe)
          04112511193D

 14 13  0     0  0            999 V2000
   -1.3613   -0.3653   -0.4054 C   0  0  0  0  0  0  0  0  0  0  0  0
    0.0104   -0.0467    0.2137 C   0  0  0  0  0  0  0  0  0  0  0  0
    1.1329   -0.7573   -0.5456 C   0  0  0  0  0  0  0  0  0  0  0  0
    2.3408   -0.5861    0.1610 O   0  0  0  0  0  0  0  0  0  0  0  0
    0.1887    1.3517    0.2735 O   0  0  0  0  0  0  0  0  0  0  0  0
   -2.4005    0.2512    0.3152 O   0  0  0  0  0  0  0  0  0  0  0  0
   -1.5559   -1.4383   -0.3785 H   0  0  0  0  0  0  0  0  0  0  0  0
   -1.3778   -0.0253   -1.4518 H   0  0  0  0  0  0  0  0  0  0  0  0
    0.0244   -0.3763    1.2578 H   0  0  0  0  0  0  0  0  0  0  0  0
    1.2121   -0.3332   -1.5564 H   0  0  0  0  0  0  0  0  0  0  0  0
    0.8762   -1.8205   -0.6277 H   0  0  0  0  0  0  0  0  0  0  0  0
    3.0546   -1.0457   -0.3022 H   0  0  0  0  0  0  0  0  0  0  0  0
    0.4248    1.6857   -0.6044 H   0  0  0  0  0  0  0  0  0  0  0  0
   -2.1081    1.1475    0.5474 H   0  0  0  0  0  0  0  0  0  0  0  0
  1  2  1  0  0  0  0
  2  3  1  0  0  0  0
  3  4  1  0  0  0  0
  2  5  1  0  0  0  0
  1  6  1  0  0  0  0
  1  7  1  0  0  0  0
  1  8  1  0  0  0  0
  2  9  1  0  0  0  0
  3 10  1  0  0  0  0
  3 11  1  0  0  0  0
  4 12  1  0  0  0  0
  5 13  1  0  0  0  0
  6 14  1  0  0  0  0
M  END
