 xtb: 6.7.1 (edcfbbe)
          04112511443D

 15 14  0     0  0            999 V2000
   -2.1453   -0.7886    0.3775 C   0  0  0  0  0  0  0  0  0  0  0  0
   -1.2381   -0.2039   -0.6878 C   0  0  0  0  0  0  0  0  0  0  0  0
   -0.0001    0.9559   -0.0006 S   0  0  0  0  0  0  0  0  0  0  0  0
    1.2390   -0.2018    0.6882 C   0  0  0  0  0  0  0  0  0  0  0  0
    2.1447   -0.7898   -0.3766 C   0  0  0  0  0  0  0  0  0  0  0  0
   -2.8895   -1.4313   -0.0870 H   0  0  0  0  0  0  0  0  0  0  0  0
   -1.5778   -1.3800    1.0926 H   0  0  0  0  0  0  0  0  0  0  0  0
   -2.6537    0.0078    0.9155 H   0  0  0  0  0  0  0  0  0  0  0  0
   -1.8053    0.3970   -1.3970 H   0  0  0  0  0  0  0  0  0  0  0  0
   -0.6967   -0.9773   -1.2302 H   0  0  0  0  0  0  0  0  0  0  0  0
    1.8075    0.4017    1.3944 H   0  0  0  0  0  0  0  0  0  0  0  0
    0.6986   -0.9734    1.2341 H   0  0  0  0  0  0  0  0  0  0  0  0
    2.8909   -1.4291    0.0892 H   0  0  0  0  0  0  0  0  0  0  0  0
    1.5766   -1.3856   -1.0877 H   0  0  0  0  0  0  0  0  0  0  0  0
    2.6505    0.0050   -0.9193 H   0  0  0  0  0  0  0  0  0  0  0  0
  1  2  1  0  0  0  0
  2  3  1  0  0  0  0
  3  4  1  0  0  0  0
  4  5  1  0  0  0  0
  1  6  1  0  0  0  0
  1  7  1  0  0  0  0
  1  8  1  0  0  0  0
  2  9  1  0  0  0  0
  2 10  1  0  0  0  0
  4 11  1  0  0  0  0
  4 12  1  0  0  0  0
  5 13  1  0  0  0  0
  5 14  1  0  0  0  0
  5 15  1  0  0  0  0
M  END
