  22
 
 C          1.8320000000        0.0010000000        1.9360000000
 N          1.6130000000       -1.0120000000        0.9050000000
 C          2.8770000000       -1.6610000000        0.5350000000
 C          2.6490000000       -2.7210000000       -0.5480000000
 N          2.0110000000       -2.1300000000       -1.7310000000
 C          0.7470000000       -1.4820000000       -1.3610000000
 C          0.9730000000       -0.4230000000       -0.2780000000
 C          1.7940000000       -3.1420000000       -2.7630000000
 H          2.3080000000       -0.4500000000        2.8110000000
 H          0.8790000000        0.4410000000        2.2420000000
 H          2.4780000000        0.7960000000        1.5540000000
 H          3.6080000000       -0.9210000000        0.1800000000
 H          3.3120000000       -2.1530000000        1.4130000000
 H          3.6220000000       -3.1450000000       -0.8250000000
 H          2.0400000000       -3.5390000000       -0.1410000000
 H          0.3120000000       -0.9900000000       -2.2390000000
 H          0.0160000000       -2.2220000000       -1.0070000000
 H          1.5810000000        0.3970000000       -0.6840000000
 H          0.0000000000        0.0000000000        0.0000000000
 H          1.3220000000       -2.6730000000       -3.6210000000
 H          1.1510000000       -3.9200000000       -2.3650000000
 H          2.7510000000       -3.5650000000       -3.0510000000
