 xtb: 6.7.1 (edcfbbe)
          04112511583D

 18 17  0     0  0            999 V2000
   -1.8370    0.9647    0.7886 C   0  0  0  0  0  0  0  0  0  0  0  0
   -1.1390    0.3221   -0.4039 C   0  0  0  0  0  0  0  0  0  0  0  0
    0.0196   -0.6075   -0.0087 C   0  0  0  0  0  0  0  0  0  0  0  0
    1.4025    0.0226   -0.2198 C   0  0  0  0  0  0  0  0  0  0  0  0
    1.6505    1.2446    0.6550 C   0  0  0  0  0  0  0  0  0  0  0  0
   -0.1140   -1.7830   -0.7990 O   0  0  0  0  0  0  0  0  0  0  0  0
   -2.6485    1.6006    0.4438 H   0  0  0  0  0  0  0  0  0  0  0  0
   -2.2537    0.2010    1.4410 H   0  0  0  0  0  0  0  0  0  0  0  0
   -1.1457    1.5712    1.3670 H   0  0  0  0  0  0  0  0  0  0  0  0
   -1.8572   -0.2883   -0.9553 H   0  0  0  0  0  0  0  0  0  0  0  0
   -0.7736    1.0924   -1.0843 H   0  0  0  0  0  0  0  0  0  0  0  0
   -0.0890   -0.8820    1.0536 H   0  0  0  0  0  0  0  0  0  0  0  0
    2.1624   -0.7316    0.0034 H   0  0  0  0  0  0  0  0  0  0  0  0
    1.5009    0.2905   -1.2743 H   0  0  0  0  0  0  0  0  0  0  0  0
    0.9769    2.0551    0.3925 H   0  0  0  0  0  0  0  0  0  0  0  0
    1.5054    0.9961    1.7039 H   0  0  0  0  0  0  0  0  0  0  0  0
    2.6713    1.5937    0.5218 H   0  0  0  0  0  0  0  0  0  0  0  0
    0.6088   -2.3921   -0.5963 H   0  0  0  0  0  0  0  0  0  0  0  0
  1  2  1  0  0  0  0
  2  3  1  0  0  0  0
  3  4  1  0  0  0  0
  4  5  1  0  0  0  0
  3  6  1  0  0  0  0
  1  7  1  0  0  0  0
  1  8  1  0  0  0  0
  1  9  1  0  0  0  0
  2 10  1  0  0  0  0
  2 11  1  0  0  0  0
  3 12  1  0  0  0  0
  4 13  1  0  0  0  0
  4 14  1  0  0  0  0
  5 15  1  0  0  0  0
  5 16  1  0  0  0  0
  5 17  1  0  0  0  0
  6 18  1  0  0  0  0
M  END
