21
 xtb: 6.7.1 (edcfbbe)
C            2.56602934541943       -0.40128084190766       -0.51153921415756
C            1.28662757710268        0.00276451229320        0.20892077342111
H            1.24926987690368       -0.48753432422365        1.18998080964871
C            0.04432805170764       -0.37456953308723       -0.60028430748988
C           -1.27234214006499       -0.51272542326522        0.17630051382164
C           -1.71386157800833        0.77541722692202        0.87254956839386
C           -2.37119120753400       -0.99856198835772       -0.77162676396781
O            1.32582804887577        1.41941778397296        0.51440807764564
H            2.61583916915797       -1.48806155929821       -0.63312464737205
H            2.60093068179134        0.05642233769272       -1.50779038927101
H            3.44579669908653       -0.07610859354100        0.05213455575981
H           -0.07665531545732        0.36312456304067       -1.40898003876405
H            0.24596461031431       -1.33595204798704       -1.09009070472211
H           -1.12079091732178       -1.28224097475069        0.94742536988506
H           -2.69265058925588        0.63612149786282        1.34560225022255
H           -1.80424664981191        1.59596930514684        0.14999186220731
H           -1.00843606499074        1.08589583237902        1.64753022626788
H           -2.09291708411320       -1.94013964618751       -1.25759425855310
H           -3.31313573154894       -1.15844173655580       -0.23605208170957
H           -2.55464922139835       -0.25570471048390       -1.55790246282640
H            1.32383680737658        1.88514267711695       -0.33315771579571
