 16

C     -0.504000     0.967000    -0.107000
C     -1.039000     1.431000     1.239000
C     -1.813000     2.745000     1.109000
C     -2.363000     3.236000     2.445000
N     -3.089000     4.469000     2.319000
H      0.048000     0.027000    -0.006000
H     -1.329000     0.803000    -0.807000
H      0.166000     1.715000    -0.542000
H     -1.692000     0.654000     1.653000
H     -0.199000     1.553000     1.932000
H     -1.164000     3.513000     0.671000
H     -2.653000     2.600000     0.419000
H     -1.560000     3.392000     3.172000
H     -3.057000     2.497000     2.857000
H     -4.056000     4.444000     2.036000
H     -2.582000     5.341000     2.313000
