  16
 
 C         -0.5040000000        0.9670000000       -0.1070000000
 C         -1.0390000000        1.4310000000        1.2390000000
 C         -1.8130000000        2.7450000000        1.1090000000
 C         -2.3630000000        3.2360000000        2.4450000000
 N         -3.0890000000        4.4690000000        2.3190000000
 H          0.0480000000        0.0270000000       -0.0060000000
 H         -1.3290000000        0.8030000000       -0.8070000000
 H          0.1660000000        1.7150000000       -0.5420000000
 H         -1.6920000000        0.6540000000        1.6530000000
 H         -0.1990000000        1.5530000000        1.9320000000
 H         -1.1640000000        3.5130000000        0.6710000000
 H         -2.6530000000        2.6000000000        0.4190000000
 H         -1.5600000000        3.3920000000        3.1720000000
 H         -3.0570000000        2.4970000000        2.8570000000
 H         -4.0560000000        4.4440000000        2.0360000000
 H         -2.5820000000        5.3410000000        2.3130000000
