 xtb: 6.7.1 (edcfbbe)
          04112511363D

 14 13  0     0  0            999 V2000
   -1.0653   -0.1202    0.7343 C   0  0  0  0  0  0  0  0  0  0  0  0
    0.2504    0.5627    0.3329 C   0  0  0  0  0  0  0  0  0  0  0  0
    1.1138   -0.3861   -0.5092 C   0  0  0  0  0  0  0  0  0  0  0  0
    1.6129   -1.3910    0.3449 O   0  0  0  0  0  0  0  0  0  0  0  0
   -0.0927    1.7326   -0.3785 O   0  0  0  0  0  0  0  0  0  0  0  0
   -1.8594   -0.4425   -0.3800 O   0  0  0  0  0  0  0  0  0  0  0  0
   -1.6125    0.5429    1.4162 H   0  0  0  0  0  0  0  0  0  0  0  0
   -0.8385   -1.0574    1.2442 H   0  0  0  0  0  0  0  0  0  0  0  0
    0.8013    0.8062    1.2524 H   0  0  0  0  0  0  0  0  0  0  0  0
    1.9423    0.1783   -0.9607 H   0  0  0  0  0  0  0  0  0  0  0  0
    0.4931   -0.8108   -1.3069 H   0  0  0  0  0  0  0  0  0  0  0  0
    2.0443   -2.0743   -0.1860 H   0  0  0  0  0  0  0  0  0  0  0  0
    0.7048    2.2325   -0.5975 H   0  0  0  0  0  0  0  0  0  0  0  0
   -2.0133    0.3754   -0.8765 H   0  0  0  0  0  0  0  0  0  0  0  0
  1  2  1  0  0  0  0
  2  3  1  0  0  0  0
  3  4  1  0  0  0  0
  2  5  1  0  0  0  0
  1  6  1  0  0  0  0
  1  7  1  0  0  0  0
  1  8  1  0  0  0  0
  2  9  1  0  0  0  0
  3 10  1  0  0  0  0
  3 11  1  0  0  0  0
  4 12  1  0  0  0  0
  5 13  1  0  0  0  0
  6 14  1  0  0  0  0
M  END
