 xtb: 6.7.1 (edcfbbe)
          04112511193D

 14 13  0     0  0            999 V2000
   -1.0500   -0.1776    0.7224 C   0  0  0  0  0  0  0  0  0  0  0  0
    0.2438    0.5621    0.3268 C   0  0  0  0  0  0  0  0  0  0  0  0
    1.1491   -0.3613   -0.4988 C   0  0  0  0  0  0  0  0  0  0  0  0
    1.6533   -1.3636    0.3553 O   0  0  0  0  0  0  0  0  0  0  0  0
   -0.0313    1.7598   -0.3634 O   0  0  0  0  0  0  0  0  0  0  0  0
   -1.9022   -0.3825   -0.3838 O   0  0  0  0  0  0  0  0  0  0  0  0
   -1.5654    0.3776    1.5121 H   0  0  0  0  0  0  0  0  0  0  0  0
   -0.7760   -1.1642    1.1001 H   0  0  0  0  0  0  0  0  0  0  0  0
    0.7754    0.8498    1.2384 H   0  0  0  0  0  0  0  0  0  0  0  0
    1.9651    0.2365   -0.9260 H   0  0  0  0  0  0  0  0  0  0  0  0
    0.5550   -0.8025   -1.3111 H   0  0  0  0  0  0  0  0  0  0  0  0
    2.2047   -1.9711   -0.1571 H   0  0  0  0  0  0  0  0  0  0  0  0
   -0.4268    1.5366   -1.2198 H   0  0  0  0  0  0  0  0  0  0  0  0
   -2.3702    0.4425   -0.5737 H   0  0  0  0  0  0  0  0  0  0  0  0
  1  2  1  0  0  0  0
  2  3  1  0  0  0  0
  3  4  1  0  0  0  0
  2  5  1  0  0  0  0
  1  6  1  0  0  0  0
  1  7  1  0  0  0  0
  1  8  1  0  0  0  0
  2  9  1  0  0  0  0
  3 10  1  0  0  0  0
  3 11  1  0  0  0  0
  4 12  1  0  0  0  0
  5 13  1  0  0  0  0
  6 14  1  0  0  0  0
M  END
