 xtb: 6.7.1 (edcfbbe)
          04112511523D

 18 17  0     0  0            999 V2000
    1.5012   -1.4393   -0.0559 C   0  0  0  0  0  0  0  0  0  0  0  0
    1.1964   -0.0305    0.4508 C   0  0  0  0  0  0  0  0  0  0  0  0
    1.7374    1.0156   -0.5226 C   0  0  0  0  0  0  0  0  0  0  0  0
   -0.2962    0.1687    0.7434 C   0  0  0  0  0  0  0  0  0  0  0  0
   -1.2236    0.0319   -0.4616 C   0  0  0  0  0  0  0  0  0  0  0  0
   -2.5513    0.2451   -0.0116 O   0  0  0  0  0  0  0  0  0  0  0  0
    2.5765   -1.5921   -0.1079 H   0  0  0  0  0  0  0  0  0  0  0  0
    1.0902   -1.5910   -1.0507 H   0  0  0  0  0  0  0  0  0  0  0  0
    1.0800   -2.1864    0.6124 H   0  0  0  0  0  0  0  0  0  0  0  0
    1.7150    0.1015    1.4076 H   0  0  0  0  0  0  0  0  0  0  0  0
    1.3300    0.8655   -1.5191 H   0  0  0  0  0  0  0  0  0  0  0  0
    2.8204    0.9410   -0.5858 H   0  0  0  0  0  0  0  0  0  0  0  0
    1.4811    2.0182   -0.1891 H   0  0  0  0  0  0  0  0  0  0  0  0
   -0.4527    1.1626    1.1685 H   0  0  0  0  0  0  0  0  0  0  0  0
   -0.6188   -0.5581    1.4921 H   0  0  0  0  0  0  0  0  0  0  0  0
   -0.9661    0.7761   -1.2252 H   0  0  0  0  0  0  0  0  0  0  0  0
   -1.1354   -0.9713   -0.8966 H   0  0  0  0  0  0  0  0  0  0  0  0
   -3.1592    0.1652   -0.7583 H   0  0  0  0  0  0  0  0  0  0  0  0
  1  2  1  0  0  0  0
  2  3  1  0  0  0  0
  2  4  1  0  0  0  0
  4  5  1  0  0  0  0
  5  6  1  0  0  0  0
  1  7  1  0  0  0  0
  1  8  1  0  0  0  0
  1  9  1  0  0  0  0
  2 10  1  0  0  0  0
  3 11  1  0  0  0  0
  3 12  1  0  0  0  0
  3 13  1  0  0  0  0
  4 14  1  0  0  0  0
  4 15  1  0  0  0  0
  5 16  1  0  0  0  0
  5 17  1  0  0  0  0
  6 18  1  0  0  0  0
M  END
