21
 xtb: 6.7.1 (edcfbbe)
C           -3.75917540568636        0.85566823260481       -1.24277156667191
C           -3.05596108404768        0.17711071005878       -0.09579329598391
O           -1.61986081446519        0.27193233258289       -0.35690419288201
C           -0.81001251596978       -0.28521515980471        0.55665360298447
O           -1.22181465939802       -0.84829929755981        1.56162128421283
C            0.62606461342661       -0.14532406991330        0.21299151311382
C            1.05050597403747        0.50649146667776       -0.95098728716624
C            2.40794343364548        0.61134214663285       -1.22941679181370
C            3.34673224341701        0.06986599363099       -0.35364675985927
C            2.92693640456261       -0.57956747221184        0.80596934731548
C            1.57187965622579       -0.68782280676868        1.08984932426554
H           -4.83927131052157        0.80403713636912       -1.07787441593014
H           -3.47234224299672        1.90875491637532       -1.31263850869196
H           -3.53235235555376        0.36057978140729       -2.19124217834596
H           -3.32154171262948       -0.88147869297733       -0.01880155473256
H           -3.26312040211181        0.66555935254973        0.86110314080127
H            0.32439944420026        0.92902579180630       -1.63497767182810
H            2.73438076788289        1.11706702882357       -2.13220485909485
H            4.40593006329070        0.15384970250558       -0.57497295637355
H            3.65717333915589       -1.00168537331383        1.48844262262428
H            1.23763272784144       -1.19202753074954        1.98983305540954
