 23

C      2.587000     0.090000    -2.081000
O      1.945000    -1.026000    -1.476000
C      1.885000    -1.036000    -0.112000
C      2.921000    -1.631000     0.608000
C      2.878000    -1.652000     2.002000
C      1.800000    -1.079000     2.676000
C      0.764000    -0.484000     1.955000
C      0.807000    -0.463000     0.561000
Cl    -0.472000     0.268000    -0.353000
C     -0.367000     0.117000     2.661000
O     -0.662000     1.306000     2.555000
Cl     1.766000    -1.113000     4.408000
O      3.901000    -2.239000     2.690000
C      4.999000    -1.405000     3.050000
O      3.976000    -2.191000    -0.050000
H      2.568000    -0.023000    -3.167000
H      3.619000     0.153000    -1.728000
H      2.053000     1.001000    -1.802000
H     -0.966000    -0.551000     3.312000
H      5.735000    -2.000000     3.590000
H      4.636000    -0.589000     3.674000
H      5.443000    -1.004000     2.140000
H      3.860000    -2.095000    -1.008000
