13
 xtb: 6.7.1 (edcfbbe)
C           -2.26018678563201       -0.25999175229518        0.16709604011568
O           -0.93710997119828       -0.29974801543282       -0.36623148788135
C           -0.08936768183794        0.65499136239528        0.27695770410998
C            1.30438046425703        0.53312990009292       -0.27532486252215
O            1.85576325736187       -0.73264947988043        0.12764849684838
H           -2.26459080116902       -0.52493718727927        1.23414688239103
H           -2.85673266937766       -0.98869081922755       -0.38669099415895
H           -2.70566731645685        0.73804892487334        0.04684650111994
H           -0.45935833912452        1.67606385368099        0.09390373661019
H           -0.08440169144186        0.48173537929715        1.36510726966919
H            1.90669225117975        1.36282731281158        0.12044571865197
H            1.28080331208629        0.61234940334183       -1.37091936600275
H            2.71548343669151       -0.82330985973484       -0.30082073340362
