  8
 
 C         -0.1940000000        0.6220000000        0.4660000000
 C          0.4260000000       -0.4920000000       -0.3720000000
 Cl        -0.0730000000       -0.3970000000       -2.0800000000
 Cl         0.0550000000       -2.1050000000        0.2870000000
 Cl        -1.9770000000        0.6010000000        0.4730000000
 H          0.1340000000        0.5480000000        1.5080000000
 H          0.1150000000        1.6030000000        0.0920000000
 H          1.5150000000       -0.3910000000       -0.3580000000
