 xtb: 6.7.1 (edcfbbe)
          04112511243D

 18 17  0     0  0            999 V2000
    2.3110    0.4711    0.5115 C   0  0  0  0  0  0  0  0  0  0  0  0
    1.5752   -0.2233   -0.6320 C   0  0  0  0  0  0  0  0  0  0  0  0
    0.2728   -0.8944   -0.1754 C   0  0  0  0  0  0  0  0  0  0  0  0
   -0.9743   -0.0112   -0.3367 C   0  0  0  0  0  0  0  0  0  0  0  0
   -1.0964    0.2315   -1.4053 H   0  0  0  0  0  0  0  0  0  0  0  0
   -2.2218   -0.7457    0.1468 C   0  0  0  0  0  0  0  0  0  0  0  0
   -0.8916    1.1982    0.4023 O   0  0  0  0  0  0  0  0  0  0  0  0
    3.1651    1.0282    0.1332 H   0  0  0  0  0  0  0  0  0  0  0  0
    2.6736   -0.2670    1.2237 H   0  0  0  0  0  0  0  0  0  0  0  0
    1.6564    1.1554    1.0444 H   0  0  0  0  0  0  0  0  0  0  0  0
    1.3563    0.4945   -1.4267 H   0  0  0  0  0  0  0  0  0  0  0  0
    2.2368   -0.9796   -1.0587 H   0  0  0  0  0  0  0  0  0  0  0  0
    0.0991   -1.7981   -0.7607 H   0  0  0  0  0  0  0  0  0  0  0  0
    0.3625   -1.1843    0.8728 H   0  0  0  0  0  0  0  0  0  0  0  0
   -2.3620   -1.6623   -0.4172 H   0  0  0  0  0  0  0  0  0  0  0  0
   -2.1186   -0.9824    1.2024 H   0  0  0  0  0  0  0  0  0  0  0  0
   -3.0930   -0.1086    0.0213 H   0  0  0  0  0  0  0  0  0  0  0  0
   -0.2163    1.7627    0.0052 H   0  0  0  0  0  0  0  0  0  0  0  0
  1  2  1  0  0  0  0
  2  3  1  0  0  0  0
  3  4  1  0  0  0  0
  4  5  1  0  0  0  0
  4  6  1  0  0  0  0
  4  7  1  0  0  0  0
  1  8  1  0  0  0  0
  1  9  1  0  0  0  0
  1 10  1  0  0  0  0
  2 11  1  0  0  0  0
  2 12  1  0  0  0  0
  3 13  1  0  0  0  0
  3 14  1  0  0  0  0
  6 15  1  0  0  0  0
  6 16  1  0  0  0  0
  6 17  1  0  0  0  0
  7 18  1  0  0  0  0
M  END
