 xtb: 6.7.1 (edcfbbe)
          04112511103D

 18 17  0     0  0            999 V2000
    2.2982   -0.2777   -0.7325 C   0  0  0  0  0  0  0  0  0  0  0  0
    1.5336   -0.5863    0.5503 C   0  0  0  0  0  0  0  0  0  0  0  0
    0.3380    0.3358    0.7830 C   0  0  0  0  0  0  0  0  0  0  0  0
   -0.7729    0.2560   -0.2695 C   0  0  0  0  0  0  0  0  0  0  0  0
   -0.3519    0.4798   -1.2622 H   0  0  0  0  0  0  0  0  0  0  0  0
   -1.4510   -1.1117   -0.3057 C   0  0  0  0  0  0  0  0  0  0  0  0
   -1.7003    1.2805    0.0688 O   0  0  0  0  0  0  0  0  0  0  0  0
    3.2006   -0.8820   -0.7848 H   0  0  0  0  0  0  0  0  0  0  0  0
    2.5844    0.7711   -0.7602 H   0  0  0  0  0  0  0  0  0  0  0  0
    1.6952   -0.4935   -1.6105 H   0  0  0  0  0  0  0  0  0  0  0  0
    1.2042   -1.6261    0.5384 H   0  0  0  0  0  0  0  0  0  0  0  0
    2.2103   -0.4688    1.3993 H   0  0  0  0  0  0  0  0  0  0  0  0
   -0.1110    0.1125    1.7533 H   0  0  0  0  0  0  0  0  0  0  0  0
    0.6786    1.3733    0.8136 H   0  0  0  0  0  0  0  0  0  0  0  0
   -2.2651   -1.1123   -1.0276 H   0  0  0  0  0  0  0  0  0  0  0  0
   -0.7384   -1.8772   -0.5953 H   0  0  0  0  0  0  0  0  0  0  0  0
   -1.8533   -1.3515    0.6757 H   0  0  0  0  0  0  0  0  0  0  0  0
   -2.4527    1.2402   -0.5367 H   0  0  0  0  0  0  0  0  0  0  0  0
  1  2  1  0  0  0  0
  2  3  1  0  0  0  0
  3  4  1  0  0  0  0
  4  5  1  0  0  0  0
  4  6  1  0  0  0  0
  4  7  1  0  0  0  0
  1  8  1  0  0  0  0
  1  9  1  0  0  0  0
  1 10  1  0  0  0  0
  2 11  1  0  0  0  0
  2 12  1  0  0  0  0
  3 13  1  0  0  0  0
  3 14  1  0  0  0  0
  6 15  1  0  0  0  0
  6 16  1  0  0  0  0
  6 17  1  0  0  0  0
  7 18  1  0  0  0  0
M  END
