35
 xtb: 6.7.1 (edcfbbe)
C           -0.47854546542276       -2.52481871996011       -0.26818747278864
C            0.41106455132279       -1.34062120366480       -0.04816362706121
C            1.79399984630658       -1.37656134086043       -0.30170403520485
N            2.59193234944128       -0.32182118922311       -0.10347115846875
C            2.02331353475011        0.80756691892733        0.36737472670686
N            0.70090065681300        0.96454226956217        0.59673994368291
C           -0.04265949961226       -0.10299945395356        0.38444576220641
O           -1.39165877397192        0.06750857881246        0.70557697187344
C           -2.26918715360968        0.11967625765268       -0.36466006898595
O           -1.87488561873805        0.14706133837769       -1.52651786318987
N           -3.54836443904526        0.18650760981159        0.05033007840712
C           -4.60251028942118        0.03355865724694       -0.95353644638912
C           -3.92593151235748       -0.12042016194093        1.43416220969807
N            2.84617425664270        1.86434973171724        0.66191136774106
C            2.24324980060107        3.18666951994162        0.83778527261241
C            4.18878317875730        1.88339728436891        0.07745843300834
C            2.42793900285280       -2.62951730279123       -0.81419603055066
H           -1.45579500372142       -2.38488208646204        0.19916082834948
H           -0.64062058126698       -2.70855141330340       -1.33707291819805
H           -0.03247331683493       -3.43104590270586        0.15257015712747
H           -4.87769387474149       -1.02135268249286       -1.07821317589958
H           -4.26716569705455        0.43087410074540       -1.91094503612373
H           -5.48321248575835        0.59166373161366       -0.62774105275650
H           -3.87179202916326       -1.19723546413997        1.63546200777812
H           -4.95443586923631        0.21303363723422        1.58451536702055
H           -3.28652272236138        0.41107081059779        2.13890172308519
H            3.00746231320453        3.86314913529143        1.22518315487206
H            1.42377867563216        3.14649650367337        1.55491868482040
H            1.86168003508914        3.59387353206977       -0.10965577804813
H            4.75042208902261        2.69997294910399        0.53534416689150
H            4.15888474320278        2.04400077219948       -1.00980188944788
H            4.71291609045262        0.94955905608723        0.27748690855182
H            2.35258151610577       -3.42694241316382       -0.06546562873115
H            1.91009740990508       -2.98905017710607       -1.70968362435293
H            3.48023706263333       -2.46342183110903       -1.04663489032202
