 xtb: 6.7.1 (edcfbbe)
          04112511183D

 27 27  0     0  0            999 V2000
   -3.5264   -0.5715   -1.8095 C   0  0  0  0  0  0  0  0  0  0  0  0
   -3.0047   -1.5816   -0.7950 C   0  0  0  0  0  0  0  0  0  0  0  0
   -2.4854   -0.9869    0.5230 C   0  0  0  0  0  0  0  0  0  0  0  0
   -2.0238   -1.8126    1.0793 H   0  0  0  0  0  0  0  0  0  0  0  0
   -3.5759   -0.3906    1.4025 C   0  0  0  0  0  0  0  0  0  0  0  0
   -1.3598   -0.0632    0.2761 N   0  0  0  0  0  0  0  0  0  0  0  0
   -0.0976   -0.6615    0.2716 C   0  0  0  0  0  0  0  0  0  0  0  0
    0.0329   -1.8618    0.4477 O   0  0  0  0  0  0  0  0  0  0  0  0
    1.0153    0.2355    0.0568 C   0  0  0  0  0  0  0  0  0  0  0  0
    0.8507    1.5653   -0.1543 C   0  0  0  0  0  0  0  0  0  0  0  0
   -0.4301    2.0278   -0.1616 N   0  0  0  0  0  0  0  0  0  0  0  0
   -1.5668    1.2720    0.0210 C   0  0  0  0  0  0  0  0  0  0  0  0
   -2.6536    1.8115   -0.0480 O   0  0  0  0  0  0  0  0  0  0  0  0
    1.9224    2.5642   -0.3844 C   0  0  0  0  0  0  0  0  0  0  0  0
    2.7248   -0.5978    0.0859 Br  0  0  0  0  0  0  0  0  0  0  0  0
   -3.9508   -1.0981   -2.6603 H   0  0  0  0  0  0  0  0  0  0  0  0
   -4.2943    0.0612   -1.3746 H   0  0  0  0  0  0  0  0  0  0  0  0
   -2.7263    0.0698   -2.1734 H   0  0  0  0  0  0  0  0  0  0  0  0
   -3.8018   -2.2793   -0.5363 H   0  0  0  0  0  0  0  0  0  0  0  0
   -2.1928   -2.1584   -1.2461 H   0  0  0  0  0  0  0  0  0  0  0  0
   -4.1352    0.3836    0.8893 H   0  0  0  0  0  0  0  0  0  0  0  0
   -4.2534   -1.1888    1.6910 H   0  0  0  0  0  0  0  0  0  0  0  0
   -3.1406    0.0380    2.3021 H   0  0  0  0  0  0  0  0  0  0  0  0
   -0.5986    3.0141   -0.3355 H   0  0  0  0  0  0  0  0  0  0  0  0
    2.9031    2.1033   -0.3239 H   0  0  0  0  0  0  0  0  0  0  0  0
    1.8542    3.3560    0.3585 H   0  0  0  0  0  0  0  0  0  0  0  0
    1.8030    3.0127   -1.3687 H   0  0  0  0  0  0  0  0  0  0  0  0
  1  2  1  0  0  0  0
  2  3  1  0  0  0  0
  3  4  1  0  0  0  0
  3  5  1  0  0  0  0
  3  6  1  0  0  0  0
  6  7  1  0  0  0  0
  7  8  2  0  0  0  0
  7  9  1  0  0  0  0
  9 10  2  0  0  0  0
 10 11  1  0  0  0  0
  6 12  1  0  0  0  0
 11 12  1  0  0  0  0
 12 13  2  0  0  0  0
 10 14  1  0  0  0  0
  9 15  1  0  0  0  0
  1 16  1  0  0  0  0
  1 17  1  0  0  0  0
  1 18  1  0  0  0  0
  2 19  1  0  0  0  0
  2 20  1  0  0  0  0
  5 21  1  0  0  0  0
  5 22  1  0  0  0  0
  5 23  1  0  0  0  0
 11 24  1  0  0  0  0
 14 25  1  0  0  0  0
 14 26  1  0  0  0  0
 14 27  1  0  0  0  0
M  END
