 20

C      0.156000     1.487000    -2.824000
C     -0.536000     1.093000    -1.529000
C      0.349000     0.185000    -0.675000
C     -0.351000    -0.209000     0.628000
C      0.538000    -1.119000     1.482000
C     -0.118000    -1.536000     2.789000
Br     1.054000    -2.688000     3.832000
H     -0.484000     2.136000    -3.429000
H      0.391000     0.596000    -3.414000
H      1.092000     2.017000    -2.623000
H     -0.791000     2.000000    -0.968000
H     -1.477000     0.582000    -1.765000
H      1.290000     0.700000    -0.445000
H      0.605000    -0.718000    -1.242000
H     -1.290000    -0.727000     0.396000
H     -0.612000     0.698000     1.184000
H      1.499000    -0.626000     1.674000
H      0.758000    -2.027000     0.907000
H     -0.377000    -0.681000     3.419000
H     -1.018000    -2.128000     2.599000
