  25
 
 C          0.1270000000       -0.8830000000        0.7360000000
 C          1.3670000000       -0.6500000000        1.5800000000
 C          1.2750000000       -1.3490000000        2.9280000000
 O          2.4630000000       -1.0900000000        3.6620000000
 C          2.5350000000       -1.6510000000        4.9010000000
 O          1.6790000000       -2.3470000000        5.4240000000
 C          3.8190000000       -1.3050000000        5.5620000000
 C          4.0950000000       -1.7820000000        6.8440000000
 C          5.3010000000       -1.4570000000        7.4650000000
 C          6.2310000000       -0.6550000000        6.8040000000
 C          5.9560000000       -0.1790000000        5.5220000000
 C          4.7500000000       -0.5040000000        4.9010000000
 O          7.4090000000       -0.3380000000        7.4090000000
 H          0.2090000000       -0.3740000000       -0.2300000000
 H         -0.0070000000       -1.9530000000        0.5460000000
 H         -0.7690000000       -0.5130000000        1.2450000000
 H          1.5170000000        0.4260000000        1.7330000000
 H          2.2560000000       -1.0030000000        1.0420000000
 H          0.4210000000       -0.9770000000        3.5030000000
 H          1.1730000000       -2.4320000000        2.8000000000
 H          3.3770000000       -2.4070000000        7.3690000000
 H          5.5100000000       -1.8320000000        8.4620000000
 H          6.6770000000        0.4470000000        5.0020000000
 H          4.5450000000       -0.1270000000        3.9020000000
 H          7.4530000000       -0.7410000000        8.2900000000
