 xtb: 6.7.1 (edcfbbe)
          04072507453D

 21 20  0     0  0            999 V2000
    1.9988   -1.0924   -0.4413 C   0  0  0  0  0  0  0  0  0  0  0  0
    1.1842   -0.0359    0.3036 C   0  0  0  0  0  0  0  0  0  0  0  0
    1.9822    1.2585    0.4735 C   0  0  0  0  0  0  0  0  0  0  0  0
   -0.0050    0.2397   -0.4365 O   0  0  0  0  0  0  0  0  0  0  0  0
   -1.2375    0.1117    0.2594 C   0  0  0  0  0  0  0  0  0  0  0  0
   -2.2785    0.8852   -0.5445 C   0  0  0  0  0  0  0  0  0  0  0  0
   -1.6474   -1.3549    0.4182 C   0  0  0  0  0  0  0  0  0  0  0  0
    2.9165   -1.3055    0.0986 H   0  0  0  0  0  0  0  0  0  0  0  0
    1.4231   -2.0087   -0.5431 H   0  0  0  0  0  0  0  0  0  0  0  0
    2.2424   -0.7262   -1.4347 H   0  0  0  0  0  0  0  0  0  0  0  0
    0.9138   -0.4204    1.2970 H   0  0  0  0  0  0  0  0  0  0  0  0
    2.8891    1.0676    1.0392 H   0  0  0  0  0  0  0  0  0  0  0  0
    1.3854    2.0004    0.9987 H   0  0  0  0  0  0  0  0  0  0  0  0
    2.2439    1.6548   -0.5038 H   0  0  0  0  0  0  0  0  0  0  0  0
   -1.1356    0.5689    1.2581 H   0  0  0  0  0  0  0  0  0  0  0  0
   -2.3674    0.4491   -1.5355 H   0  0  0  0  0  0  0  0  0  0  0  0
   -3.2408    0.8453   -0.0441 H   0  0  0  0  0  0  0  0  0  0  0  0
   -1.9696    1.9213   -0.6503 H   0  0  0  0  0  0  0  0  0  0  0  0
   -1.7440   -1.8139   -0.5626 H   0  0  0  0  0  0  0  0  0  0  0  0
   -2.5988   -1.4175    0.9378 H   0  0  0  0  0  0  0  0  0  0  0  0
   -0.9020   -1.9054    0.9878 H   0  0  0  0  0  0  0  0  0  0  0  0
  1  2  1  0  0  0  0
  2  3  1  0  0  0  0
  2  4  1  0  0  0  0
  4  5  1  0  0  0  0
  5  6  1  0  0  0  0
  5  7  1  0  0  0  0
  1  8  1  0  0  0  0
  1  9  1  0  0  0  0
  1 10  1  0  0  0  0
  2 11  1  0  0  0  0
  3 12  1  0  0  0  0
  3 13  1  0  0  0  0
  3 14  1  0  0  0  0
  5 15  1  0  0  0  0
  6 16  1  0  0  0  0
  6 17  1  0  0  0  0
  6 18  1  0  0  0  0
  7 19  1  0  0  0  0
  7 20  1  0  0  0  0
  7 21  1  0  0  0  0
M  END
