20
CONF7
C -2.1065140036 0.1928473163 1.3249815168
C -1.7651048348 -0.5732667402 0.0494556262
C -2.9141326428 -0.5082800583 -0.9528317626
C -0.4962616014 -0.0095688049 -0.5863904930
O 0.6097113227 -0.2563731437 0.2916700513
C 1.7888339482 0.2506122462 -0.0438039002
O 1.9674162046 0.8990664319 -1.0555656552
C 2.8421393130 -0.0637194842 0.9752397404
H -2.9763225799 -0.2456608671 1.8059702874
H -2.3256080489 1.2328634773 1.0935197414
H -1.2707956453 0.1592500906 2.0188603111
H -1.5675216750 -1.6182375704 0.3072619631
H -3.8184777210 -0.9134187703 -0.5082761306
H -2.6807348480 -1.0812747652 -1.8464064747
H -3.1033585433 0.5222060437 -1.2436956127
H -0.2860316008 -0.4869827351 -1.5495416728
H -0.5781844599 1.0698050145 -0.7546420437
H 2.5319511432 -0.9090391948 1.5796606285
H 2.9733426094 0.8075786726 1.6134367323
H 3.7844927705 -0.2618394332 0.4738606415
20
CONF10
C -2.1213882681 0.2215953601 1.3126854407
C -1.7651394105 -0.5720964495 0.0582862918
C -2.9068051502 -0.5373849413 -0.9538579046
C -0.4951630038 -0.0154087191 -0.5813092641
O 0.6057736088 -0.2303902555 0.3117186149
C 1.7884273281 0.2566093005 -0.0401349751
O 1.9697067161 0.8763005068 -1.0693368873
C 2.8483588677 -0.0609831719 0.9709151196
H -1.2922303911 0.2073107637 2.0149314934
H -2.9940114624 -0.2091677139 1.7955189991
H -2.3419039093 1.2552508282 1.0556824280
H -1.5633280974 -1.6095237717 0.3420149852
H -3.8120191714 -0.9380008936 -0.5069699874
H -2.6630380702 -1.1290626622 -1.8323402782
H -3.1002122227 0.4849933591 -1.2695740208
H -0.2735366954 -0.5152257060 -1.5304053791
H -0.5835648195 1.0587570568 -0.7772918425
H 3.4520360132 0.8237154232 1.1506413975
H 3.4965661137 -0.8323249841 0.5609365562
H 2.3921238872 -0.4167124379 1.8880044284
20
CONF8
C -3.0116377949 0.7376355948 0.1676794300
C -1.8089048040 -0.1800138547 0.3686804300
C -1.9816211106 -1.4867191087 -0.4014967644
C -0.5358032794 0.5357431254 -0.0772169387
O 0.5962304557 -0.2605712660 0.2962540143
C 1.8000433520 0.1819321290 -0.0425988125
O 1.9783509093 1.2244296362 -0.6404420514
C 2.8829091699 -0.7608510715 0.3877987240
H -3.9198305033 0.2355511989 0.4881942752
H -3.1141364505 1.0009853732 -0.8822898387
H -2.9002644033 1.6528680786 0.7432178034
H -1.7017202986 -0.4090913849 1.4333610847
H -2.1118967539 -1.2851278861 -1.4624019878
H -2.8546338064 -2.0235272566 -0.0410876155
H -1.1063964553 -2.1177057827 -0.2719519995
H -0.5194296463 0.6832653523 -1.1625768559
H -0.4406487264 1.5176742708 0.3987840388
H 2.5202924338 -1.4027115970 1.1831992145
H 3.7535199381 -0.1943466384 0.7035248250
H 3.1656791222 -1.3716767428 -0.4669925365
20
CONF11
C -2.9974033770 0.7530003306 0.1903493835
C -1.8029770730 -0.1801019547 0.3685103387
C -2.0203896667 -1.4960447276 -0.3739586965
C -0.5342819382 0.5085257349 -0.1296674925
O 0.5978154933 -0.2992157319 0.2182347966
C 1.8043365727 0.1840800257 -0.0483014388
O 1.9832715240 1.2601701507 -0.5828477688
C 2.8905527081 -0.7441121294 0.4044109992
H -3.1290717617 1.0011188798 -0.8600789802
H -2.8540289912 1.6755418503 0.7469072869
H -3.9025224465 0.2703777283 0.5474338544
H -1.6656373303 -0.3935823227 1.4330033719
H -2.8874038795 -2.0147804194 0.0254339541
H -1.1497349949 -2.1370570223 -0.2649671416
H -2.1850333027 -1.3093141379 -1.4327865753
H -0.5518836831 0.6368468315 -1.2173928717
H -0.4088827743 1.4970154070 0.3253320216
H 3.1973714862 -0.4483291503 1.4055518316
H 3.7458686919 -0.6544502769 -0.2577690641
H 2.5195743797 -1.7627764955 0.4352802145
20
CONF2
C -2.1231106819 1.0472236193 -0.5852224760
C -1.5327306421 -0.0285901879 0.3229325878
C -2.6189120050 -0.9714386936 0.8325628917
C -0.4644880086 -0.8317683961 -0.4258736425
O 0.6428752250 -0.0079189417 -0.8100199956
C 1.6429784263 0.1477588585 0.0507723913
O 1.6732475728 -0.3753683034 1.1458628112
C 2.7249594258 1.0178124500 -0.5153152454
H -1.3348794988 1.6751493774 -0.9932180498
H -2.8134141484 1.6740443063 -0.0273373137
H -2.6606886063 0.5866216118 -1.4105271271
H -1.0447383682 0.4505169553 1.1797648614
H -3.0876848098 -1.4915464879 0.0009339802
H -3.3811323587 -0.4075347700 1.3627048433
H -2.1995703741 -1.7088191817 1.5123323867
H -0.0934322018 -1.6461860368 0.2043482182
H -0.8610383156 -1.2279805272 -1.3616950307
H 2.2865047522 1.8236159152 -1.0948106500
H 3.3401130078 0.4129655159 -1.1779599957
H 3.3423223408 1.4031588506 0.2894007283
20
CONF15
C -2.2922089601 0.1136513830 -1.2467679606
C -1.9580425037 0.0855719759 0.2427471833
C -2.0450936856 -1.3346653943 0.7966737011
C -0.5698748500 0.6743780636 0.4925898385
O 0.4132128798 -0.1251436476 -0.1774971721
C 1.6859215111 0.2047049962 -0.0108506102
O 2.0428033719 1.1510955482 0.6628028614
C 2.6065695055 -0.7337296652 -0.7314639027
H -1.5763850718 -0.4883456376 -1.8001439969
H -2.2580961666 1.1315392817 -1.6275049948
H -3.2882361875 -0.2860555271 -1.4154072849
H -2.6673032360 0.7230139285 0.7801077575
H -1.3260622454 -1.9752345325 0.2929895858
H -3.0414771441 -1.7380688681 0.6398319110
H -1.8315273669 -1.3434383230 1.8627553132
H -0.4989466315 1.6996344362 0.1134085927
H -0.3315075836 0.6929906549 1.5616670281
H 3.5138055623 -0.2091234268 -1.0135607068
H 2.1072138178 -1.1522059491 -1.5986098607
H 2.8705744373 -1.5419172428 -0.0524150273
20
CONF1
C -2.7807686988 0.8803410071 0.0760320594
C -1.5333903423 0.0302704328 0.2992075541
C -1.8939409372 -1.4473575702 0.4310057631
C -0.5547736170 0.2393300470 -0.8607663135
O 0.6798772973 -0.4530958606 -0.6406581593
C 1.6411322400 0.1659391885 0.0353427323
O 1.5427958676 1.3015334602 0.4541828787
C 2.8452232961 -0.7105197300 0.2087297797
H -3.4781686710 0.7391268666 0.8968357003
H -3.2722932067 0.5930348150 -0.8500868846
H -2.5221793118 1.9346812380 0.0201116180
H -1.0337500788 0.3630062185 1.2165915457
H -0.9950613280 -2.0507913748 0.5305899660
H -2.4378956557 -1.7799005887 -0.4497677421
H -2.5185348873 -1.6061581411 1.3058196206
H -0.9533711683 -0.1790742973 -1.7859646977
H -0.3406222154 1.3052825194 -0.9875094974
H 3.7458968951 -0.1198407085 0.0713838682
H 2.8061229084 -1.5367924375 -0.4925974755
H 2.8460928279 -1.0967154635 1.2258427517
20
CONF9
C -3.0365974486 0.6928682701 0.1602102471
C -1.8083812147 -0.1886693479 0.3685915672
C -1.8681028313 -1.4294568452 -0.5187792171
C -0.5436014523 0.6170268977 0.0763599293
O 0.6009840707 -0.1508283381 0.4707259376
C 1.7769758469 0.1532355920 -0.0622908973
O 1.9342447583 1.0559700330 -0.8600552082
C 2.8619204526 -0.7567888785 0.4300687999
H -3.9398736257 0.1274204319 0.3699362091
H -3.0791328590 1.0436935983 -0.8681259185
H -3.0084206269 1.5570685322 0.8186240785
H -1.7620171306 -0.5048670043 1.4151230518
H -2.7451138311 -2.0233416601 -0.2771532346
H -0.9826357089 -2.0423284416 -0.3707628082
H -1.9214443317 -1.1425340124 -1.5668451920
H -0.4571627418 0.8572949935 -0.9888301600
H -0.5349380379 1.5547402927 0.6418308812
H 2.5180040041 -1.3063272683 1.2993757558
H 3.7467921383 -0.1711694577 0.6612368342
H 3.1175205810 -1.4522620353 -0.3663632427
20
CONF5
C -1.6020636199 0.4533819478 1.2432158506
C -1.6537940068 -0.5769797618 0.1179501061
C -2.9786325153 -0.4924119679 -0.6350103101
C -0.4970238790 -0.3672070101 -0.8641392037
O 0.7588536685 -0.6697420061 -0.2443036972
C 1.6224754165 0.3105604710 -0.0045789340
O 1.4334294736 1.4701219530 -0.3091801869
C 2.8503003707 -0.2054390401 0.6857563397
H -0.6618273043 0.3854287090 1.7868367905
H -2.4152946675 0.2884533777 1.9445141320
H -1.6880072412 1.4602346086 0.8394324554
H -1.5445372333 -1.5775404062 0.5486440707
H -3.0293901651 -1.2495813273 -1.4127338648
H -3.0873498626 0.4863247935 -1.0960636513
H -3.8069178998 -0.6446338416 0.0509541431
H -0.5846576155 -1.0518226063 -1.7110415073
H -0.4739673425 0.6665644267 -1.2231071607
H 3.6299995300 0.5482578185 0.6548423413
H 3.1771624064 -1.1246327341 0.2097972066
H 2.6015549534 -0.4281437404 1.7207623693
20
CONF14
C -2.1929245113 0.2423016563 -1.2445554931
C -1.9557809317 0.0567139026 0.2523909605
C -2.1331912437 -1.4045306986 0.6578808868
C -0.5642524126 0.5557487607 0.6413616625
O 0.4276490773 -0.2077042569 -0.0572180845
C 1.6807977910 0.2199812941 -0.0070354161
O 2.0202995067 1.2105685414 0.6097935291
C 2.6013969146 -0.6500539805 -0.8091597636
H -1.4731826242 -0.3427286005 -1.8110878940
H -2.0864400547 1.2882110033 -1.5224017691
H -3.1940057089 -0.0859987620 -1.5094081734
H -2.6724097912 0.6712473768 0.8063793970
H -1.4035062227 -2.0243585657 0.1439222218
H -3.1297527984 -1.7482618607 0.3955140824
H -1.9964384924 -1.5235245625 1.7298242753
H -0.4327416591 1.6128360125 0.3858054457
H -0.3905375955 0.4433929644 1.7169828925
H 2.1676038004 -1.6362721212 -0.9328704242
H 3.5688787913 -0.7037359233 -0.3197832141
H 2.7380851359 -0.1936681772 -1.7873805852
20
CONF4
C -1.5843526539 0.4228274721 1.2579651050
C -1.6558393474 -0.5806976347 0.1097480897
C -2.9802390624 -0.4574562151 -0.6386785710
C -0.4980673322 -0.3671918379 -0.8702081579
O 0.7571914158 -0.6718622882 -0.2502942512
C 1.6190381136 0.3080625334 -0.0050718268
O 1.4309743738 1.4681066260 -0.3100094959
C 2.8432616307 -0.2040954206 0.6940506718
H -1.6398530248 1.4405517919 0.8763914181
H -0.6504947065 0.3160496709 1.8063171616
H -2.4071167348 0.2643503677 1.9496559721
H -1.5629055583 -1.5922483788 0.5179333195
H -3.0420497217 -1.1922587695 -1.4368058869
H -3.0764406142 0.5348714087 -1.0726032512
H -3.8096004667 -0.6173314249 0.0441838466
H -0.5851109036 -1.0474785705 -1.7204810521
H -0.4743985549 0.6683562547 -1.2241011238
H 2.9164175433 -1.2792641179 0.5734750513
H 2.7615967958 0.0367797843 1.7518051676
H 3.7218185016 0.2976107094 0.3003710417
20
CONF3
C -3.0257616403 0.6052851029 0.0909911995
C -1.7201463336 -0.1296090896 0.3818384492
C -1.5264040188 -1.2976158953 -0.5819223637
C -0.5507845814 0.8545119003 0.2822733217
O 0.6623035640 0.2482064136 0.7447265671
C 1.6508797392 0.0270755098 -0.1132636131
O 1.6090889782 0.3311645079 -1.2881569556
C 2.8200150244 -0.6316172414 0.5568677005
H -3.8642431974 -0.0805694752 0.1701323179
H -3.0099634379 1.0169407403 -0.9152728909
H -3.1757673002 1.4186258458 0.7958214427
H -1.7420397073 -0.5161047802 1.4058374696
H -2.3549260415 -1.9957761109 -0.5005975339
H -0.6047971430 -1.8318960973 -0.3597386869
H -1.4723890456 -0.9378924879 -1.6076535924
H -0.4075813396 1.1856937361 -0.7511678736
H -0.7210160579 1.7193851377 0.9277816325
H 3.6806214273 0.0292848970 0.4908627570
H 3.0635325218 -1.5481670546 0.0259687350
H 2.5833466859 -0.8403745309 1.5943028349
20
CONF17
C -2.3610502746 -0.1292411399 -1.2425477864
C -1.9485309845 0.1387218601 0.2028898827
C -1.9256301054 -1.1546284254 1.0141643223
C -0.5847685242 0.8289641238 0.2515009595
O 0.4078290355 -0.0308325732 -0.3226499438
C 1.6751248670 0.1648826599 0.0129453351
O 2.0368627982 1.0346346333 0.7803037319
C 2.5854611153 -0.8093663245 -0.6734525290
H -1.6320636463 -0.7761992113 -1.7228932134
H -2.4215281043 0.8009842304 -1.8016647134
H -3.3324395297 -0.6147007852 -1.2716364376
H -2.6635055935 0.8316991208 0.6574750063
H -1.6347026173 -0.9568911789 2.0432720542
H -1.2154351576 -1.8543454984 0.5810155514
H -2.9095542171 -1.6149720921 1.0149425063
H -0.5990355495 1.7621593185 -0.3213781450
H -0.2900270896 1.0616679879 1.2804735996
H 2.5944245359 -0.5905003948 -1.7383099370
H 2.2084967231 -1.8186428141 -0.5379340804
H 3.5882739926 -0.7164739706 -0.2702842393
20
CONF13
C -2.3974989007 -0.6294891630 -1.0050815777
C -1.8435822960 0.2662599204 0.1005054477
C -1.5450450439 -0.5411614492 1.3619798965
C -0.5907356014 1.0057050873 -0.3833187436
O 0.4616177595 0.0892875587 -0.7075693453
C 1.5484334836 0.0558024435 0.0535658216
O 1.7235057099 0.7719333802 1.0182313832
C 2.5321276589 -0.9603468146 -0.4472878631
H -3.2757075500 -1.1625928330 -0.6516510441
H -1.6471622336 -1.3550413420 -1.3086128560
H -2.6762779456 -0.0371462977 -1.8725291284
H -2.5815542935 1.0375460584 0.3422265246
H -1.0990709621 0.0910907763 2.1272529560
H -0.8509035799 -1.3498147353 1.1410981262
H -2.4596772439 -0.9738867578 1.7577202409
H -0.8034282284 1.5555073334 -1.3029562479
H -0.2272447491 1.6942817881 0.3858816879
H 2.0270589715 -1.9057220359 -0.6207056673
H 3.3333269753 -1.0784087691 0.2745211916
H 2.9386875354 -0.6148538173 -1.3946249680
20
CONF6
C -2.3221972422 0.9080629713 0.7516625004
C -1.7310773767 -0.4201327945 0.2859914974
C -2.7545717192 -1.2279324976 -0.5072701805
C -0.4904399435 -0.1769894662 -0.5730144645
O 0.5355614096 0.4112065709 0.2374718434
C 1.8039244944 0.1588704751 -0.0578723667
O 2.1489893567 -0.5453253045 -0.9856381383
C 2.7390499882 0.8571022648 0.8831873568
H -2.6769863128 1.4816119806 -0.1014018069
H -1.5686952526 1.4913393487 1.2737019842
H -3.1577771890 0.7338362879 1.4238241733
H -1.4192886332 -0.9959026863 1.1634353375
H -2.3408441804 -2.1871160839 -0.8079160210
H -3.0529430008 -0.6855862801 -1.4010641145
H -3.6376293407 -1.4067852757 0.0993131620
H -0.1057418869 -1.1100955892 -0.9980382855
H -0.7138681596 0.5138261783 -1.3924101654
H 2.9540538072 1.8451565544 0.4816432935
H 3.6681971693 0.3006866032 0.9525098405
H 2.2716325991 0.9684872807 1.8556536948
20
CONF12
C -1.7108771884 0.8340753031 -0.9315509891
C -1.8369132263 -0.0580941306 0.3015841795
C -2.2240707651 -1.4818744858 -0.0912249172
C -0.5343171317 -0.0580078486 1.1103653874
O 0.5605895421 -0.5562625791 0.3322481963
C 1.5229909931 0.2773602006 -0.0402332083
O 1.5577249437 1.4527476536 0.2639687528
C 2.5563997863 -0.4173503978 -0.8768655777
H -1.3739363340 1.8306696543 -0.6531251807
H -2.6699178434 0.9189699982 -1.4348739244
H -0.9920568308 0.4139429652 -1.6323687027
H -2.6072807955 0.3560797927 0.9595625156
H -3.1416006024 -1.4744319426 -0.6729709345
H -2.3786873731 -2.0935109774 0.7936959603
H -1.4353569775 -1.9313593724 -0.6891639341
H -0.2883008997 0.9538770739 1.4474533401
H -0.6187299486 -0.7255243338 1.9708290715
H 2.4551795886 -0.0777972606 -1.9053389609
H 2.4139640359 -1.4912515514 -0.8277944347
H 3.5469177151 -0.1389201093 -0.5290418072
20
CONF16
C -2.3991750181 -0.2694032462 -1.2066969075
C -1.9327320862 0.1721977587 0.1784076039
C -1.8312913087 -1.0191765268 1.1281800112
C -0.5918545363 0.9034718592 0.0845908740
O 0.4128934260 0.0155068402 -0.4219945724
C 1.6546234804 0.1368105982 0.0248625553
O 1.9963086944 0.9640225345 0.8467570169
C 2.5735994173 -0.8580217640 -0.6190685631
H -1.6678831319 -0.9404162834 -1.6490652381
H -2.5211860581 0.5901863910 -1.8606256786
H -3.3511005803 -0.7879219418 -1.1346052657
H -2.6499844529 0.8915345794 0.5860659344
H -1.4930952570 -0.6985845211 2.1110867902
H -1.1248017325 -1.7489636108 0.7402017642
H -2.8002492884 -1.4986114674 1.2347222741
H -0.6619973843 1.7526632529 -0.6024752965
H -0.2681421996 1.2700963919 1.0644441589
H 2.0099667050 -1.7170314648 -0.9664708523
H 3.3440398200 -1.1508682018 0.0873421890
H 3.0526420572 -0.3793379030 -1.4706705577
