20
CONF16
C -2.3149563392 -0.2307450948 -1.2196768554
C -1.9345367565 0.1404992273 0.2140166798
C -2.0354138596 -1.0640911353 1.1505872909
C -0.5677669986 0.7970058490 0.2860898934
O 0.4285494064 -0.1730611182 -0.1684413338
C 1.7089406735 0.2285613236 -0.1482645842
O 2.0573634635 1.3346744043 0.2379321551
C 2.6427742841 -0.8146690884 -0.6725527598
H -1.6538309857 -1.0105493583 -1.6124942133
H -2.2526711347 0.6366320673 -1.8855693470
H -3.3394276778 -0.6143115195 -1.2561366171
H -2.6305108857 0.9134913571 0.5679857620
H -1.7652125606 -0.7934274883 2.1768968813
H -1.3713823620 -1.8717286132 0.8246610933
H -3.0569976303 -1.4567879923 1.1605570700
H -0.5092550787 1.6764450073 -0.3636677615
H -0.3189204929 1.0902961152 1.3110231235
H 2.1725404985 -1.7965404158 -0.7289321780
H 3.5336461827 -0.8514308764 -0.0417640131
H 2.9576730807 -0.5120886755 -1.6773739224
20
CONF10
C -2.1338712698 0.1927707670 1.3282958340
C -1.7710347635 -0.5786481171 0.0603236580
C -2.9022393753 -0.5087788362 -0.9666703934
C -0.5086569902 -0.0349483376 -0.5823762502
O 0.5971156947 -0.2222151261 0.3543470095
C 1.7953202230 0.2449497187 -0.0335450721
O 1.9777949947 0.8129595557 -1.0999508757
C 2.8699769052 -0.0300318128 0.9684869756
H -1.3378467839 0.1434934775 2.0771712259
H -3.0445258914 -0.2150465534 1.7786108222
H -2.3166395675 1.2482123742 1.0930272149
H -1.5933168828 -1.6314631078 0.3172260265
H -3.8289641726 -0.9054693621 -0.5413184877
H -2.6657131262 -1.0870868854 -1.8658749089
H -3.0878820932 0.5290877840 -1.2672658216
H -0.2667123478 -0.5672416270 -1.5080830267
H -0.6047050634 1.0352116692 -0.7990417697
H 3.4899548597 0.8618496543 1.0824448313
H 3.5065045321 -0.8287501445 0.5723775847
H 2.4660889283 -0.3406251267 1.9319560626
20
CONF7
C -2.1135197578 0.1568389761 1.3446352750
C -1.7710042083 -0.5785338440 0.0500279951
C -2.9122772491 -0.4678386821 -0.9621997867
C -0.5098358358 -0.0282309827 -0.5892734251
O 0.6022412586 -0.2502224394 0.3330266226
C 1.8047988701 0.2063369780 -0.0576951720
O 1.9909200290 0.7667478505 -1.1269934595
C 2.8612444859 -0.0268250297 0.9731332403
H -3.0256938854 -0.2533972066 1.7896317537
H -2.2843026811 1.2214598498 1.1446840790
H -1.3122093132 0.0735181173 2.0846924024
H -1.6005913418 -1.6403006584 0.2728629452
H -3.8377867778 -0.8696123590 -0.5389292917
H -2.6903466082 -1.0207700736 -1.8808332564
H -3.0924976856 0.5800288904 -1.2296294067
H -0.2807275916 -0.5375687684 -1.5308718146
H -0.5979215262 1.0483148637 -0.7761184007
H 2.6087217609 -0.8555567183 1.6354530653
H 2.9503105435 0.8844945844 1.5755765352
H 3.8193083071 -0.2023351542 0.4815935712
20
CONF8
C -3.0067200876 0.7462738597 0.1321089687
C -1.8170340822 -0.1836680238 0.3762688063
C -1.9878194545 -1.5019637077 -0.3767947130
C -0.5518271752 0.5418667515 -0.0428039002
O 0.5937105536 -0.2899144517 0.3186253711
C 1.8057730529 0.1839313145 -0.0159371841
O 1.9713125424 1.2524582222 -0.5848138914
C 2.9065452481 -0.7556584696 0.3578498626
H -3.9393119031 0.2615901024 0.4362241993
H -3.0894815982 0.9970490680 -0.9319826054
H -2.9089402026 1.6799072575 0.6956874778
H -1.7470764967 -0.3900550690 1.4526429863
H -2.0596134925 -1.3183179608 -1.4555966988
H -2.9044811785 -2.0087673978 -0.0585980841
H -1.1494247801 -2.1826658812 -0.2016417833
H -0.5332515401 0.7111423325 -1.1256254631
H -0.4519167038 1.5030207838 0.4716558379
H 2.6106541460 -1.4323563749 1.1600646045
H 3.7918410977 -0.1841367441 0.6412436952
H 3.1571669432 -1.3519924610 -0.5269156698
20
CONF14
C -2.2492814122 0.2357449130 -1.2564901838
C -1.9459862637 0.0568427708 0.2316761908
C -2.1206887046 -1.3982518808 0.6681932314
C -0.5743556950 0.5956855970 0.5969686594
O 0.4281523313 -0.1787721593 -0.1329670309
C 1.7105458326 0.1725038883 0.0512294616
O 2.0563128783 1.0742883913 0.7995082835
C 2.6411808689 -0.6420487319 -0.7884262225
H -1.5860624141 -0.3838801688 -1.8692461774
H -2.1236859607 1.2788637653 -1.5658284160
H -3.2794256348 -0.0621825776 -1.4752711386
H -2.6480152905 0.6774012756 0.8053537952
H -1.4506296920 -2.0591088035 0.1081853767
H -3.1468194709 -1.7320815967 0.4851068202
H -1.9081927002 -1.5219689180 1.7354825723
H -0.4692506656 1.6478935933 0.3130172909
H -0.3757029484 0.4910562085 1.6685720040
H 2.2425299019 -1.6395242096 -0.9787915107
H 3.6175122985 -0.7004076932 -0.3062287747
H 2.7614352450 -0.1318890311 -1.7511203575
20
CONF9
C -3.0127857843 0.7205652051 0.1202470600
C -1.8137505594 -0.2002724465 0.3523356242
C -1.9445056970 -1.4860634503 -0.4625815886
C -0.5498578583 0.5612118134 -0.0016740372
O 0.5968375549 -0.2787945657 0.3363657142
C 1.8121145112 0.2305494931 0.0717640640
O 1.9805187533 1.3412418706 -0.4078117589
C 2.9093307913 -0.7302715164 0.3984552630
H -3.9422968382 0.2130346239 0.3950559886
H -3.0841960584 1.0039162356 -0.9364136242
H -2.9371614785 1.6370802019 0.7145835188
H -1.7663324972 -0.4535384070 1.4199103615
H -2.8650125911 -2.0161237226 -0.1978900798
H -1.1043598368 -2.1649455150 -0.2893657098
H -1.9828743982 -1.2558935183 -1.5341545029
H -0.5112218477 0.7890653490 -1.0732968754
H -0.4716462168 1.4938612824 0.5661015569
H 2.6180066780 -1.4239163519 1.1881571193
H 3.8084316162 -0.1798788407 0.6784397848
H 3.1297820792 -1.3100713107 -0.5053188656
20
CONF6
C -2.2437332681 0.9207413927 0.7256870484
C -1.7709967361 -0.4759802396 0.3259699242
C -2.8144772313 -1.1809624494 -0.5420424526
C -0.4642809846 -0.4260904568 -0.4441758330
O 0.5571450782 0.1462258930 0.4291458672
C 1.7853352049 0.2887136000 -0.0976718221
O 2.0656298146 -0.0451774789 -1.2391820728
C 2.7426014443 0.9230439679 0.8590928500
H -2.4020705781 1.5388825052 -0.1662312040
H -1.5177553075 1.4283709232 1.3675868551
H -3.1917573837 0.8634254644 1.2700390407
H -1.6056290568 -1.0741087615 1.2320126447
H -2.4957566609 -2.1931319300 -0.8122183684
H -2.9910292620 -0.6202350704 -1.4674558627
H -3.7667644273 -1.2557639936 -0.0084468825
H -0.1375195938 -1.4266623158 -0.7451097333
H -0.5543926434 0.2050532264 -1.3359076360
H 2.8097133651 1.9887666266 0.6122508800
H 3.7331992915 0.4844693636 0.7270321013
H 2.4119013511 0.8247667620 1.8934266440
20
CONF17
C -2.3020427980 -0.1117417810 -1.2481405981
C -1.9407103874 0.1124032211 0.2206917930
C -2.0538285599 -1.1798813018 1.0305433268
C -0.5740040691 0.7557347127 0.3746038232
O 0.4260064184 -0.1641870938 -0.1644052260
C 1.7083208294 0.2287982342 -0.0860623254
O 2.0525527746 1.2887894425 0.4135708079
C 2.6328154368 -0.7702760535 -0.7038710747
H -1.6387298138 -0.8527803096 -1.7065433437
H -2.2237337503 0.8175458596 -1.8223755313
H -3.3279456280 -0.4820620988 -1.3387183732
H -2.6405446300 0.8473574629 0.6416005559
H -1.7982492018 -1.0138133105 2.0826030549
H -1.3841387551 -1.9507661752 0.6346693222
H -3.0749406723 -1.5714529142 0.9867009815
H -0.5100688348 1.6970251698 -0.1812789466
H -0.3371240399 0.9430868409 1.4269074137
H 2.5688845213 -0.6750439076 -1.7936166865
H 2.3384256901 -1.7887521506 -0.4415801173
H 3.6572500419 -0.5730522634 -0.3890602177
20
CONF15
C -2.3036166715 0.1159937954 -1.2488006766
C -1.9456771815 0.0731669178 0.2370547765
C -2.0731710040 -1.3411351719 0.8043413628
C -0.5753770686 0.6690396791 0.5060354930
O 0.4220104818 -0.1447207742 -0.1874625164
C 1.7048570362 0.2198286844 -0.0332187581
O 2.0500397067 1.1884284380 0.6269642748
C 2.6426924545 -0.7128689499 -0.7298588021
H -1.6442992644 -0.5370590637 -1.8303162809
H -2.2179518647 1.1316721460 -1.6495473149
H -3.3319218108 -0.2249683353 -1.4048338927
H -2.6411717239 0.7279727633 0.7798949695
H -1.4106880439 -2.0367496983 0.2782877006
H -3.0981239518 -1.7078410583 0.6908955018
H -1.8187017016 -1.3670410266 1.8692622612
H -0.5040428180 1.6942216030 0.1282714849
H -0.3399297316 0.6631468958 1.5752151945
H 3.5608641571 -0.1850874799 -0.9897493221
H 2.1859462966 -1.1550872666 -1.6164955554
H 2.8935988229 -1.5222610096 -0.0345970119
20
CONF4
C -1.5155626449 0.4128843927 1.2467272690
C -1.6424734607 -0.5831212791 0.0956207328
C -2.9775926705 -0.4172583564 -0.6317315249
C -0.5211134129 -0.4260332032 -0.9207051600
O 0.7707284170 -0.7254166919 -0.3082572981
C 1.5833917919 0.2972409677 0.0220688233
O 1.3332066450 1.4702184010 -0.2051573794
C 2.8206295860 -0.1766337917 0.7157709952
H -1.5860141188 1.4422570234 0.8764360911
H -0.5638707651 0.3040059992 1.7776776698
H -2.3193110777 0.2582634044 1.9738574827
H -1.5862913843 -1.6028570583 0.4995401897
H -3.0856970325 -1.1436636640 -1.4440915298
H -3.0622312161 0.5883911834 -1.0598895780
H -3.8112703662 -0.5581452331 0.0628045869
H -0.6212525144 -1.1559097731 -1.7282350217
H -0.5005818002 0.5833846720 -1.3408501180
H 2.9911988782 -1.2434775460 0.5717910496
H 2.7009573009 0.0217081553 1.7867630306
H 3.6769925669 0.4018464717 0.3634917234
20
CONF3
C -3.0178559499 0.6068642247 0.0483215396
C -1.7126690254 -0.1158451729 0.3856280642
C -1.4689389618 -1.2842097731 -0.5673953936
C -0.5800004330 0.8989145572 0.3450538421
O 0.6677979838 0.2933749558 0.8053444842
C 1.6051729704 -0.0318376834 -0.1054203488
O 1.4927125421 0.1685911620 -1.3043719288
C 2.8117654834 -0.6490341566 0.5277194537
H -3.8634050479 -0.0852926564 0.1050078854
H -2.9831968234 1.0128925106 -0.9694244940
H -3.2088987600 1.4344061646 0.7396042153
H -1.7793892465 -0.5013366434 1.4118063235
H -2.2833302625 -2.0120902877 -0.4921089220
H -0.5346512841 -1.8089845786 -0.3410874107
H -1.4228300322 -0.9334694958 -1.6049838206
H -0.4405076957 1.3024646046 -0.6615324208
H -0.7641446727 1.7186417577 1.0443592137
H 3.6575982312 0.0319539544 0.3881074545
H 3.0485294157 -1.5788345411 0.0040699190
H 2.6702216470 -0.8406220836 1.5909011944
20
CONF5
C -1.5189168820 0.4308025779 1.2354023970
C -1.6381979919 -0.5857232177 0.1014804429
C -2.9752126485 -0.4435280416 -0.6276111774
C -0.5186671912 -0.4367379762 -0.9179708836
O 0.7763221583 -0.7192035231 -0.3045073425
C 1.5813995969 0.3133759652 0.0178908545
O 1.3209526564 1.4819353760 -0.2177177448
C 2.8180422526 -0.1621129004 0.7113217443
H -0.5664521208 0.3378474375 1.7679906607
H -2.3215624886 0.2830023818 1.9651886121
H -1.5967840007 1.4531234055 0.8474266689
H -1.5733064073 -1.5979027551 0.5227705261
H -3.0784185242 -1.1859175497 -1.4260446155
H -3.0679018372 0.5532602792 -1.0745249390
H -3.8072859481 -0.5776024601 0.0702417604
H -0.6159037345 -1.1783170078 -1.7151565715
H -0.5048874260 0.5666801562 -1.3526573755
H 3.5660699223 0.6301763476 0.7221809135
H 3.2146560197 -1.0605374215 0.2335534247
H 2.5563797642 -0.4214219489 1.7433061237
20
CONF11
C -2.9970163511 0.7582834773 0.1672616932
C -1.8116151378 -0.1842681801 0.3824784195
C -2.0158158480 -1.5013264661 -0.3644105020
C -0.5496401030 0.5271826299 -0.0691958648
O 0.5954763175 -0.3163858457 0.2639905851
C 1.8061207575 0.1559984927 -0.0795528594
O 1.9672928464 1.2132072298 -0.6700602789
C 2.9114913007 -0.7404898054 0.3766193408
H -3.1075527685 1.0047306097 -0.8953070327
H -2.8722058084 1.6933904108 0.7229525908
H -3.9260081000 0.2861166209 0.5006609539
H -1.7170314711 -0.3902013111 1.4570746137
H -2.9310684413 -1.9964681344 -0.0243041254
H -1.1819718603 -2.1921197915 -0.2076773251
H -2.1104120018 -1.3180505312 -1.4415676331
H -0.5573480759 0.6952069377 -1.1523780487
H -0.4260110015 1.4878659595 0.4411539792
H 3.2126506561 -0.4199688341 1.3806918412
H 3.7693181633 -0.6341018032 -0.2883075484
H 2.5908763548 -1.7816869190 0.4325557608
20
CONF2
C -2.0843877939 1.0639588239 -0.5565680096
C -1.5233331320 -0.0418948998 0.3353183037
C -2.6297779789 -0.9848498382 0.8099598253
C -0.4739110272 -0.8674414428 -0.3948458982
O 0.6497299212 -0.0477738302 -0.8437135545
C 1.6295508372 0.1934874237 0.0505336340
O 1.6245073214 -0.2437177827 1.1898372698
C 2.7226421135 1.0210500550 -0.5445449291
H -1.2997792690 1.7467762065 -0.8967256169
H -2.8299406669 1.6538664178 -0.0137152473
H -2.5712930140 0.6349768997 -1.4406837115
H -1.0492527577 0.4136258696 1.2142407684
H -3.1089144717 -1.4793161747 -0.0434160658
H -3.4006053034 -0.4280130630 1.3513562771
H -2.2380571345 -1.7598960096 1.4771010951
H -0.0917052343 -1.6782066777 0.2313775089
H -0.8857294310 -1.2848717610 -1.3183113635
H 2.3135757792 1.8227288979 -1.1630722003
H 3.3316639584 0.3789711121 -1.1906862023
H 3.3521904202 1.4282552076 0.2462340391
20
CONF1
C -2.7760583211 0.8823115527 0.0734315715
C -1.5190038328 0.0402042530 0.2939439757
C -1.8637925731 -1.4393441834 0.4537643861
C -0.5784689063 0.2664541924 -0.8814913802
O 0.6822842527 -0.4527008568 -0.7142410871
C 1.6314137495 0.1398839622 0.0347663146
O 1.5059589308 1.2482106083 0.5316265834
C 2.8412753431 -0.7227322615 0.1991268272
H -3.4783280607 0.7452800077 0.9014855146
H -3.2848021024 0.5848488582 -0.8513350320
H -2.5367533336 1.9486788754 0.0034561472
H -1.0165515293 0.3913339057 1.2044116678
H -0.9696714504 -2.0469171173 0.6239550507
H -2.3661950933 -1.8156775014 -0.4455837326
H -2.5369150954 -1.5874769592 1.3041886113
H -1.0025282839 -0.1487085377 -1.8003459905
H -0.3632338476 1.3281757039 -1.0290053484
H 3.7378343440 -0.1034720963 0.1284766394
H 2.8734355748 -1.5306543131 -0.5318210874
H 2.8124879056 -1.1554010318 1.2054874091
20
CONF12
C -1.6930432825 0.8746043705 -0.9017242133
C -1.8137007789 -0.0560947607 0.3047449004
C -2.1918353362 -1.4744295375 -0.1231275795
C -0.5571928342 -0.0442872358 1.1638747314
O 0.5782242591 -0.5969215153 0.4238762451
C 1.4937985002 0.2530105813 -0.0792847485
O 1.4663846459 1.4624562961 0.0839919096
C 2.5448167310 -0.4588573446 -0.8699659493
H -1.4579032470 1.8993287329 -0.5968491151
H -2.6324740381 0.8929291219 -1.4633548161
H -0.9072399840 0.5319328789 -1.5855077864
H -2.6031759200 0.3300532389 0.9649624019
H -3.1487981282 -1.4726117408 -0.6545279919
H -2.2845360356 -2.1393272626 0.7422394520
H -1.4374018496 -1.8948865817 -0.7968628933
H -0.3085363881 0.9640450579 1.5018226014
H -0.6697889632 -0.7037420131 2.0282311706
H 2.4041710396 -0.2032282540 -1.9257374641
H 2.4914618434 -1.5408444994 -0.7517598001
H 3.5285102673 -0.0897801177 -0.5699113417
20
CONF13
C -2.3561269772 -0.6569899833 -0.9947622825
C -1.8155793132 0.2699468642 0.0943435900
C -1.5136085175 -0.5013342970 1.3788600720
C -0.6125394639 1.0663814545 -0.3906921254
O 0.4784979539 0.1704242746 -0.7760240593
C 1.5150921430 0.0097507156 0.0711800278
O 1.6283438264 0.6018417998 1.1314824733
C 2.5041111450 -0.9705172318 -0.4735283353
H -3.2746221673 -1.1480881075 -0.6581772147
H -1.6294894131 -1.4397005439 -1.2376814854
H -2.5821661798 -0.1039125391 -1.9124562386
H -2.5788058889 1.0294135454 0.3157228044
H -1.1566574258 0.1628014621 2.1722415562
H -0.7511251179 -1.2701149208 1.2051350305
H -2.4148946425 -1.0082706097 1.7383765168
H -0.8517945657 1.6180963190 -1.3035200950
H -0.2544935484 1.7606374257 0.3727322209
H 2.0013908930 -1.9084374208 -0.7248587131
H 3.2924068050 -1.1494345387 0.2565760360
H 2.9389302559 -0.5735456245 -1.3962759562
