  33
 
 C         -3.0275853424        0.3009286757       -1.6928927218
 C         -2.9266103838        0.1962570751       -0.1633994499
 H         -3.9131795059       -0.0681233743        0.2394461502
 C         -1.9316313108       -0.8560487955        0.2540031650
 C         -2.3372650294       -1.9452421564        1.0147928281
 C         -1.4260102490       -2.9133611730        1.4023251270
 C         -0.0967992505       -2.7929546030        1.0466663546
 C          0.3298714524       -1.6900996415        0.3115616026
 C         -0.5946738636       -0.7344765353       -0.0960548158
 C          1.7680091711       -1.5887787821       -0.0577114549
 O          2.4204051015       -2.5790061385       -0.3247477642
 C          2.3647434932       -0.2311647999       -0.0757180307
 C          1.8897359166        0.8035166354        0.7288425571
 C          2.5085085180        2.0400617552        0.6979174354
 C          3.5964301723        2.2584778766       -0.1319982029
 C          4.0792753029        1.2313094246       -0.9280851694
 C          3.4731063846       -0.0091233840       -0.8931267881
 C         -2.5371328006        1.5632892338        0.4038465654
 O         -1.4625488845        1.8420405588        0.8451671575
 O         -3.5214966378        2.4790436874        0.3642286578
 H         -2.0651193663        0.5698991192       -2.1198406639
 H         -3.3290470519       -0.6597327499       -2.1044692763
 H         -3.7580386374        1.0502395057       -1.9951243483
 H         -3.3750500095       -2.0429657504        1.3024105313
 H         -1.7566810946       -3.7609195577        1.9840029649
 H          0.6279598007       -3.5376115588        1.3391733291
 H         -0.2656006488        0.1037164343       -0.6900249748
 H          1.0479833179        0.6452655993        1.3851982545
 H          2.1348906414        2.8363014152        1.3234778970
 H          4.0726759215        3.2280604610       -0.1547229860
 H          4.9305473892        1.3988126222       -1.5715585874
 H          3.8376726678       -0.8244649733       -1.5006635486
 H         -4.3417048096        2.1332741842       -0.0119402814
          33
        -53.57701826
 C         -3.8008204819        1.1125583960       -1.7649903948
 C         -3.2873167366       -0.0530647538       -0.9216658055
 H         -3.1447581044       -0.9283524086       -1.5678173813
 C         -1.9824124234        0.2714152372       -0.2335165599
 C         -1.9206584943        1.3004803335        0.7023917583
 C         -0.7343099086        1.5842768734        1.3551925646
 C          0.4105985160        0.8575684758        1.0782811225
 C          0.3641938597       -0.1718172932        0.1430885903
 C         -0.8390012784       -0.4671657806       -0.4930097939
 C          1.5438848226       -1.0275223385       -0.1551404046
 O          1.4122332157       -2.2078857085       -0.4121185088
 C          2.8749843515       -0.3750174346       -0.1205944751
 C          3.9837123712       -1.1391095261        0.2392169314
 C          5.2424552380       -0.5706366457        0.2687607900
 C          5.4089144200        0.7597863676       -0.0821367125
 C          4.3147902826        1.5186412644       -0.4667179716
 C          3.0505349687        0.9590634685       -0.4835247299
 C         -4.3054393758       -0.4343643771        0.1546739550
 O         -5.3231676417        0.1548561678        0.3643115008
 O         -3.9591965131       -1.5090036691        0.8844885539
 H         -4.0056082500        1.9752764169       -1.1379602189
 H         -3.0626232102        1.3861178908       -2.5149783637
 H         -4.7256922528        0.8307552523       -2.2611135941
 H         -2.8105485676        1.8678220472        0.9299851580
 H         -0.7032544173        2.3752614825        2.0892484375
 H          1.3296402999        1.0688552998        1.6041321917
 H         -0.8535898475       -1.2809079230       -1.2052854663
 H          3.8345566831       -2.1761184576        0.5009066208
 H          6.0960193503       -1.1643949751        0.5599320451
 H          6.3929193065        1.2044089447       -0.0633816463
 H          4.4482946135        2.5508782887       -0.7550646028
 H          2.2024720931        1.5480965883       -0.8013433685
 H         -3.0983474288       -1.8721334907        0.6327287843
          33
        -53.58592406
 C         -2.7777024854        0.8144583764       -2.1429914758
 C         -2.8968181447        0.5759127707       -0.6371087541
 H         -3.9372431848        0.3869609913       -0.3608147408
 C         -2.0441176952       -0.5937436572       -0.1925424182
 C         -2.6283291053       -1.7224060213        0.3678474217
 C         -1.8468313137       -2.8001061844        0.7521564176
 C         -0.4756498861       -2.7535930840        0.5931245000
 C          0.1263995395       -1.6142912415        0.0631773437
 C         -0.6650977188       -0.5433234826       -0.3391801452
 C          1.6046202702       -1.5950657297       -0.1007685682
 O          2.2301617289       -2.6110838451       -0.3293709556
 C          2.2736417005       -0.2758462784        0.0251569273
 C          1.8074237001        0.7094457497        0.8934013972
 C          2.4746621060        1.9160581200        0.9920121943
 C          3.6047575375        2.1530834965        0.2258950665
 C          4.0830207207        1.1717468214       -0.6277525961
 C          3.4272594408       -0.0406363031       -0.7204474453
 C         -2.4190775171        1.7878295552        0.1373181931
 O         -1.4644688808        2.4643527464       -0.1329199890
 O         -3.1783476143        2.0098989284        1.2171002844
 H         -1.7724722498        1.1424897060       -2.3923991540
 H         -2.9946339026       -0.1040607482       -2.6824077207
 H         -3.4788543671        1.5831565049       -2.4594461708
 H         -3.7002959706       -1.7627742039        0.4967418287
 H         -2.3131361759       -3.6772895743        1.1752807456
 H          0.1491109825       -3.5848324296        0.8832124170
 H         -0.2065090470        0.3327115638       -0.7724821343
 H          0.9369042784        0.5219870150        1.5048169018
 H          2.1101371587        2.6766499378        1.6661115140
 H          4.1167370999        3.1012522498        0.2996314060
 H          4.9691886359        1.3525269914       -1.2180517055
 H          3.7874698613       -0.8198129200       -1.3757980430
 H         -2.8425464797        2.7671704244        1.7230981268
