 xtb: 6.7.1 (edcfbbe)
          04112512193D

 17 16  0     0  0            999 V2000
   -2.5437    0.6159    0.6545 C   0  0  0  0  0  0  0  0  0  0  0  0
   -1.7422    0.3545   -0.6228 C   0  0  0  0  0  0  0  0  0  0  0  0
   -0.4299   -0.3083   -0.2900 C   0  0  0  0  0  0  0  0  0  0  0  0
   -0.1497   -1.4595   -0.5542 O   0  0  0  0  0  0  0  0  0  0  0  0
    0.3822    0.5175    0.3556 O   0  0  0  0  0  0  0  0  0  0  0  0
    1.6756    0.0372    0.7567 C   0  0  0  0  0  0  0  0  0  0  0  0
    2.7031    0.2574   -0.3430 C   0  0  0  0  0  0  0  0  0  0  0  0
   -3.4834    1.0988    0.4041 H   0  0  0  0  0  0  0  0  0  0  0  0
   -2.7577   -0.3195    1.1660 H   0  0  0  0  0  0  0  0  0  0  0  0
   -1.9818    1.2612    1.3242 H   0  0  0  0  0  0  0  0  0  0  0  0
   -1.5316    1.3008   -1.1210 H   0  0  0  0  0  0  0  0  0  0  0  0
   -2.2944   -0.3017   -1.2947 H   0  0  0  0  0  0  0  0  0  0  0  0
    1.9206    0.6138    1.6493 H   0  0  0  0  0  0  0  0  0  0  0  0
    1.5935   -1.0263    1.0008 H   0  0  0  0  0  0  0  0  0  0  0  0
    2.7380    1.3082   -0.6171 H   0  0  0  0  0  0  0  0  0  0  0  0
    3.6806   -0.0543    0.0100 H   0  0  0  0  0  0  0  0  0  0  0  0
    2.4408   -0.3295   -1.2206 H   0  0  0  0  0  0  0  0  0  0  0  0
  1  2  1  0  0  0  0
  2  3  1  0  0  0  0
  3  4  2  0  0  0  0
  3  5  1  0  0  0  0
  5  6  1  0  0  0  0
  6  7  1  0  0  0  0
  1  8  1  0  0  0  0
  1  9  1  0  0  0  0
  1 10  1  0  0  0  0
  2 11  1  0  0  0  0
  2 12  1  0  0  0  0
  6 13  1  0  0  0  0
  6 14  1  0  0  0  0
  7 15  1  0  0  0  0
  7 16  1  0  0  0  0
  7 17  1  0  0  0  0
M  END
