  16
 
 C          1.2542937009        1.2568980653        0.6097054656
 C          0.6770083700        0.2678409563       -0.4097568263
 C          1.5724735144       -0.9623100641       -0.5297533357
 C         -0.7116714315       -0.1283108635        0.0747344839
 O         -0.8950765745       -1.0251629950        0.8571435350
 C         -1.8358493292        0.7063756329       -0.4857812773
 H          0.6219717814        2.1372355203        0.7038266062
 H          1.3321843571        0.7809549247        1.5844325529
 H          2.2461710042        1.5762480981        0.2982465218
 H          0.5927787322        0.7660471989       -1.3803410546
 H          1.2026392969       -1.6288184680       -1.3056919757
 H          1.5779467809       -1.5049279463        0.4119127563
 H          2.5903161302       -0.6707278043       -0.7762091550
 H         -1.9677752787        0.4522267442       -1.5360264116
 H         -1.5943129788        1.7642225997       -0.4224715732
 H         -2.7605517021        0.5025674462        0.0463825456
          16
        -19.86289739
 C          1.5930332889        0.9221420511       -0.5633331069
 C          0.6712345052       -0.2842277208       -0.4066610925
 C          1.2016415570       -1.2308957794        0.6763415582
 C         -0.7215618725        0.1599425119        0.0210231756
 O         -0.9058550260        1.0830503225        0.7715116647
 C         -1.8484411583       -0.6629879343       -0.5508450019
 H          2.6093061162        0.6001884843       -0.7775003457
 H          1.2506148386        1.5604996041       -1.3748252893
 H          1.5924627804        1.5057016817        0.3538025388
 H          0.6035773074       -0.8284318141       -1.3535417901
 H          0.5583994020       -2.1016664198        0.7848734406
 H          1.2464716689       -0.7124898655        1.6313333225
 H          2.2018826959       -1.5704836656        0.4173983685
 H         -2.7856778123       -0.4174790807       -0.0586012936
 H         -1.6369728377       -1.7239905166       -0.4430439175
 H         -1.9369129639       -0.4429889729       -1.6136403450
