  16
 
 C          1.7490000000        3.8110000000        0.3320000000
 C          0.2940000000        3.4410000000        0.5920000000
 C         -0.6400000000        4.5640000000        0.1510000000
 C         -0.0460000000        2.1350000000       -0.1210000000
 O         -0.4800000000        2.1060000000       -1.2730000000
 C          0.2060000000        0.8570000000        0.6390000000
 H          2.4260000000        3.0090000000        0.6470000000
 H          1.9190000000        4.0040000000       -0.7330000000
 H          2.0320000000        4.7130000000        0.8840000000
 H          0.1430000000        3.2810000000        1.6670000000
 H         -1.6850000000        4.2970000000        0.3380000000
 H         -0.5380000000        4.7740000000       -0.9200000000
 H         -0.4230000000        5.4870000000        0.6990000000
 H         -0.6830000000        0.5810000000        1.2090000000
 H          1.0400000000        1.0020000000        1.3320000000
 H          0.4720000000        0.0600000000       -0.0590000000
