  10
 
 C          0.8450000000       -0.5680000000        0.4100000000
 S          0.8620000000       -0.5490000000        2.2960000000
 O          2.1870000000       -1.1420000000        2.6710000000
 C          1.0230000000        1.2500000000        2.4100000000
 H         -0.0980000000       -0.1470000000        0.0540000000
 H          0.9450000000       -1.5990000000        0.0640000000
 H          1.6810000000        0.0300000000        0.0410000000
 H          1.0570000000        1.5390000000        3.4620000000
 H          0.1630000000        1.7120000000        1.9230000000
 H          1.9430000000        1.5540000000        1.9090000000
