 xtb: 6.7.1 (edcfbbe)
          04112512333D

 21 20  0     0  0            999 V2000
    2.0707   -1.3796   -0.1669 C   0  0  0  0  0  0  0  0  0  0  0  0
    1.6694    0.0827   -0.3080 C   0  0  0  0  0  0  0  0  0  0  0  0
    0.3283    0.4484    0.3490 C   0  0  0  0  0  0  0  0  0  0  0  0
    0.3678    0.1786    1.4176 H   0  0  0  0  0  0  0  0  0  0  0  0
   -0.8741   -0.2871   -0.2938 C   0  0  0  0  0  0  0  0  0  0  0  0
   -1.2640   -1.5174    0.5252 C   0  0  0  0  0  0  0  0  0  0  0  0
   -2.0924    0.6260   -0.4330 C   0  0  0  0  0  0  0  0  0  0  0  0
    0.1245    1.8502    0.2440 O   0  0  0  0  0  0  0  0  0  0  0  0
    3.0737   -1.5234   -0.5612 H   0  0  0  0  0  0  0  0  0  0  0  0
    1.3949   -2.0273   -0.7176 H   0  0  0  0  0  0  0  0  0  0  0  0
    2.0680   -1.6761    0.8796 H   0  0  0  0  0  0  0  0  0  0  0  0
    2.4465    0.7018    0.1495 H   0  0  0  0  0  0  0  0  0  0  0  0
    1.6134    0.3531   -1.3650 H   0  0  0  0  0  0  0  0  0  0  0  0
   -0.5792   -0.6060   -1.2990 H   0  0  0  0  0  0  0  0  0  0  0  0
   -1.6312   -1.2131    1.5031 H   0  0  0  0  0  0  0  0  0  0  0  0
   -2.0561   -2.0628    0.0179 H   0  0  0  0  0  0  0  0  0  0  0  0
   -0.4221   -2.1876    0.6676 H   0  0  0  0  0  0  0  0  0  0  0  0
   -2.9127    0.0761   -0.8876 H   0  0  0  0  0  0  0  0  0  0  0  0
   -1.8582    1.4870   -1.0519 H   0  0  0  0  0  0  0  0  0  0  0  0
   -2.4082    0.9865    0.5429 H   0  0  0  0  0  0  0  0  0  0  0  0
    0.8720    2.3070    0.6513 H   0  0  0  0  0  0  0  0  0  0  0  0
  1  2  1  0  0  0  0
  2  3  1  0  0  0  0
  3  4  1  0  0  0  0
  3  5  1  0  0  0  0
  5  6  1  0  0  0  0
  5  7  1  0  0  0  0
  3  8  1  0  0  0  0
  1  9  1  0  0  0  0
  1 10  1  0  0  0  0
  1 11  1  0  0  0  0
  2 12  1  0  0  0  0
  2 13  1  0  0  0  0
  5 14  1  0  0  0  0
  6 15  1  0  0  0  0
  6 16  1  0  0  0  0
  6 17  1  0  0  0  0
  7 18  1  0  0  0  0
  7 19  1  0  0  0  0
  7 20  1  0  0  0  0
  8 21  1  0  0  0  0
M  END
