  16
 
 C          1.4189212077       -1.1660556921        0.4217582352
 C          0.7395856096        0.0912578633       -0.0376572319
 C          1.4329656540        1.1300043419       -0.4898041900
 C         -0.7345358420        0.1123053145        0.0191914830
 C         -1.4005915698        1.2008825127        0.3874574418
 C         -1.4461786556       -1.1593769631       -0.3404711578
 H          1.0585831314       -1.4538328391        1.4086304636
 H          2.4952550699       -1.0212996791        0.4707337089
 H          1.2132395340       -1.9860496103       -0.2649498550
 H          0.9507832181        2.0213594523       -0.8518301669
 H          2.5094705513        1.1194931094       -0.5277244471
 H         -2.4769446723        1.2207928025        0.4260129859
 H         -0.8951638612        2.1049151253        0.6794930071
 H         -1.2563937384       -1.9300891191        0.4059419426
 H         -2.5191077417       -0.9928936186       -0.3964156912
 H         -1.0978807503       -1.5302020267       -1.3038808622
          16
        -17.89041174
 C          1.7123860937       -0.9441739804       -0.0012408061
 C          0.7129253454        0.1776767947        0.0001247511
 C          1.1348282732        1.4412822789        0.0012771625
 C         -0.7129229236       -0.1776497633       -0.0000598700
 C         -1.1347167436       -1.4412905106        0.0012650020
 C         -1.7124674371        0.9441880185       -0.0012424882
 H          1.5853638063       -1.5704319334        0.8804102961
 H          2.7249756364       -0.5490176402       -0.0005767373
 H          1.5855487473       -1.5682927971       -0.8844722317
 H          0.4703579813        2.2861371110        0.0016102387
 H          2.1862101604        1.6765109667        0.0015427724
 H         -2.1861455648       -1.6764063428        0.0013431826
 H         -0.4703057342       -2.2862170914        0.0022085785
 H         -2.7250172491        0.5490521237       -0.0018220031
 H         -1.5865048391        1.5687668514        0.8813822341
 H         -1.5848715280        1.5695074281       -0.8831010556
