 16

C     -1.520000    -0.519000     1.145000
C     -0.409000     0.302000     0.535000
C     -0.210000     1.550000     0.997000
C      0.407000    -0.301000    -0.536000
C      0.817000     0.381000    -1.621000
C      0.803000    -1.753000    -0.412000
H     -2.472000    -0.384000     0.618000
H     -1.690000    -0.229000     2.188000
H     -1.282000    -1.587000     1.105000
H      0.563000     2.207000     0.616000
H     -0.831000     1.960000     1.788000
H      1.416000    -0.097000    -2.391000
H      0.579000     1.425000    -1.791000
H      0.051000    -2.402000    -0.876000
H      1.757000    -1.966000    -0.908000
H      0.920000    -2.036000     0.639000
