17
 xtb: 6.7.1 (edcfbbe)
C            2.48392414092437        0.89460925917526       -0.19391489793148
C            1.21473879591941        0.19570070220661        0.28766362308510
C            1.36952445087216       -1.32298993214200        0.23584007114799
C            0.02063395087967        0.66064633037353       -0.57511452165272
C           -1.26458811982717        0.00919835913017       -0.16958004518367
O           -1.89470929258023       -0.79434977268672       -0.83726448797119
O           -1.67037789907737        0.39418798165775        1.06412159964036
H            3.34183648993272        0.60075849223632        0.41971255062640
H            2.38403479364500        1.98377723187414       -0.14128533834809
H            2.70305517991387        0.62260382874792       -1.23321135555766
H            1.02039758275881        0.49637941491949        1.32445318286963
H            0.48573130442597       -1.83696544690830        0.63070522902028
H            1.52412412695686       -1.65991134876406       -0.79619003718876
H            2.23225513506460       -1.64220080114017        0.82939684891444
H            0.20437848575695        0.41584750600854       -1.62478645928794
H           -0.09514774935669        1.74614218184846       -0.47965428935656
H           -2.49341660573955       -0.07910518753375        1.27843024809894
