 xtb: 6.7.1 (edcfbbe)
          04112511553D

 21 21  0     0  0            999 V2000
   -3.4274   -1.0233   -0.0017 C   0  0  0  0  0  0  0  0  0  0  0  0
   -2.5514    0.1995   -0.0002 C   0  0  0  0  0  0  0  0  0  0  0  0
   -3.0387    1.3242   -0.0000 O   0  0  0  0  0  0  0  0  0  0  0  0
   -1.0931   -0.0025    0.0007 C   0  0  0  0  0  0  0  0  0  0  0  0
   -0.2673    1.1238    0.0008 C   0  0  0  0  0  0  0  0  0  0  0  0
    1.1069    1.0154    0.0007 C   0  0  0  0  0  0  0  0  0  0  0  0
    1.6975   -0.2480    0.0005 C   0  0  0  0  0  0  0  0  0  0  0  0
    0.8787   -1.3841    0.0009 C   0  0  0  0  0  0  0  0  0  0  0  0
   -0.4904   -1.2657    0.0009 C   0  0  0  0  0  0  0  0  0  0  0  0
    3.0287   -0.4824   -0.0001 O   0  0  0  0  0  0  0  0  0  0  0  0
    3.9234    0.6171   -0.0017 C   0  0  0  0  0  0  0  0  0  0  0  0
   -4.4697   -0.7152   -0.0032 H   0  0  0  0  0  0  0  0  0  0  0  0
   -3.2273   -1.6231    0.8823 H   0  0  0  0  0  0  0  0  0  0  0  0
   -3.2248   -1.6228   -0.8852 H   0  0  0  0  0  0  0  0  0  0  0  0
   -0.7367    2.0967    0.0008 H   0  0  0  0  0  0  0  0  0  0  0  0
    1.7069    1.9105    0.0009 H   0  0  0  0  0  0  0  0  0  0  0  0
    1.3556   -2.3511    0.0010 H   0  0  0  0  0  0  0  0  0  0  0  0
   -1.0905   -2.1602    0.0009 H   0  0  0  0  0  0  0  0  0  0  0  0
    4.9172    0.1757   -0.0027 H   0  0  0  0  0  0  0  0  0  0  0  0
    3.7936    1.2308    0.8927 H   0  0  0  0  0  0  0  0  0  0  0  0
    3.7915    1.2299   -0.8963 H   0  0  0  0  0  0  0  0  0  0  0  0
  1  2  1  0  0  0  0
  2  3  2  0  0  0  0
  2  4  1  0  0  0  0
  4  5  4  0  0  0  0
  5  6  4  0  0  0  0
  6  7  4  0  0  0  0
  7  8  4  0  0  0  0
  4  9  4  0  0  0  0
  8  9  2  0  0  0  0
  7 10  1  0  0  0  0
 10 11  1  0  0  0  0
  1 12  1  0  0  0  0
  1 13  1  0  0  0  0
  1 14  1  0  0  0  0
  5 15  1  0  0  0  0
  6 16  1  0  0  0  0
  8 17  1  0  0  0  0
  9 18  1  0  0  0  0
 11 19  1  0  0  0  0
 11 20  1  0  0  0  0
 11 21  1  0  0  0  0
M  END
