 xtb: 6.7.1 (edcfbbe)
          04112512233D

 20 19  0     0  0            999 V2000
   -3.0366    0.6929    0.1602 C   0  0  0  0  0  0  0  0  0  0  0  0
   -1.8084   -0.1887    0.3686 C   0  0  0  0  0  0  0  0  0  0  0  0
   -1.8681   -1.4295   -0.5188 C   0  0  0  0  0  0  0  0  0  0  0  0
   -0.5436    0.6170    0.0764 C   0  0  0  0  0  0  0  0  0  0  0  0
    0.6010   -0.1508    0.4707 O   0  0  0  0  0  0  0  0  0  0  0  0
    1.7770    0.1532   -0.0623 C   0  0  0  0  0  0  0  0  0  0  0  0
    1.9342    1.0560   -0.8601 O   0  0  0  0  0  0  0  0  0  0  0  0
    2.8619   -0.7568    0.4301 C   0  0  0  0  0  0  0  0  0  0  0  0
   -3.9399    0.1274    0.3699 H   0  0  0  0  0  0  0  0  0  0  0  0
   -3.0791    1.0437   -0.8681 H   0  0  0  0  0  0  0  0  0  0  0  0
   -3.0084    1.5571    0.8186 H   0  0  0  0  0  0  0  0  0  0  0  0
   -1.7620   -0.5049    1.4151 H   0  0  0  0  0  0  0  0  0  0  0  0
   -2.7451   -2.0233   -0.2772 H   0  0  0  0  0  0  0  0  0  0  0  0
   -0.9826   -2.0423   -0.3708 H   0  0  0  0  0  0  0  0  0  0  0  0
   -1.9214   -1.1425   -1.5668 H   0  0  0  0  0  0  0  0  0  0  0  0
   -0.4572    0.8573   -0.9888 H   0  0  0  0  0  0  0  0  0  0  0  0
   -0.5349    1.5547    0.6418 H   0  0  0  0  0  0  0  0  0  0  0  0
    2.5180   -1.3063    1.2994 H   0  0  0  0  0  0  0  0  0  0  0  0
    3.7468   -0.1712    0.6612 H   0  0  0  0  0  0  0  0  0  0  0  0
    3.1175   -1.4523   -0.3664 H   0  0  0  0  0  0  0  0  0  0  0  0
  1  2  1  0  0  0  0
  2  3  1  0  0  0  0
  2  4  1  0  0  0  0
  4  5  1  0  0  0  0
  5  6  1  0  0  0  0
  6  7  2  0  0  0  0
  6  8  1  0  0  0  0
  1  9  1  0  0  0  0
  1 10  1  0  0  0  0
  1 11  1  0  0  0  0
  2 12  1  0  0  0  0
  3 13  1  0  0  0  0
  3 14  1  0  0  0  0
  3 15  1  0  0  0  0
  4 16  1  0  0  0  0
  4 17  1  0  0  0  0
  8 18  1  0  0  0  0
  8 19  1  0  0  0  0
  8 20  1  0  0  0  0
M  END
