 xtb: 6.7.1 (edcfbbe)
          04112511493D

 21 20  0     0  0            999 V2000
    1.5135    0.1674   -1.2009 C   0  0  0  0  0  0  0  0  0  0  0  0
    1.1220   -0.2348    0.2183 C   0  0  0  0  0  0  0  0  0  0  0  0
    0.9635   -1.3233    0.2567 H   0  0  0  0  0  0  0  0  0  0  0  0
   -0.1230    0.4814    0.7575 C   0  0  0  0  0  0  0  0  0  0  0  0
   -1.4998    0.1133    0.1806 C   0  0  0  0  0  0  0  0  0  0  0  0
   -1.8102    0.8112   -1.1432 C   0  0  0  0  0  0  0  0  0  0  0  0
   -1.7013   -1.3951    0.0512 C   0  0  0  0  0  0  0  0  0  0  0  0
    2.1587    0.0968    1.1392 O   0  0  0  0  0  0  0  0  0  0  0  0
    2.4864   -0.2511   -1.4530 H   0  0  0  0  0  0  0  0  0  0  0  0
    0.7904   -0.2093   -1.9158 H   0  0  0  0  0  0  0  0  0  0  0  0
    1.5683    1.2500   -1.2833 H   0  0  0  0  0  0  0  0  0  0  0  0
   -0.1336    0.2693    1.8301 H   0  0  0  0  0  0  0  0  0  0  0  0
    0.0375    1.5561    0.6489 H   0  0  0  0  0  0  0  0  0  0  0  0
   -2.2289    0.4833    0.9119 H   0  0  0  0  0  0  0  0  0  0  0  0
   -1.6252    1.8797   -1.0654 H   0  0  0  0  0  0  0  0  0  0  0  0
   -2.8572    0.6637   -1.3991 H   0  0  0  0  0  0  0  0  0  0  0  0
   -1.2087    0.4150   -1.9551 H   0  0  0  0  0  0  0  0  0  0  0  0
   -1.0791   -1.8043   -0.7408 H   0  0  0  0  0  0  0  0  0  0  0  0
   -1.4544   -1.8963    0.9840 H   0  0  0  0  0  0  0  0  0  0  0  0
   -2.7396   -1.6111   -0.1897 H   0  0  0  0  0  0  0  0  0  0  0  0
    2.9916   -0.2847    0.8308 H   0  0  0  0  0  0  0  0  0  0  0  0
  1  2  1  0  0  0  0
  2  3  1  0  0  0  0
  2  4  1  0  0  0  0
  4  5  1  0  0  0  0
  5  6  1  0  0  0  0
  5  7  1  0  0  0  0
  2  8  1  0  0  0  0
  1  9  1  0  0  0  0
  1 10  1  0  0  0  0
  1 11  1  0  0  0  0
  4 12  1  0  0  0  0
  4 13  1  0  0  0  0
  5 14  1  0  0  0  0
  6 15  1  0  0  0  0
  6 16  1  0  0  0  0
  6 17  1  0  0  0  0
  7 18  1  0  0  0  0
  7 19  1  0  0  0  0
  7 20  1  0  0  0  0
  8 21  1  0  0  0  0
M  END
