 xtb: 6.7.1 (edcfbbe)
          04112511193D

 14 13  0     0  0            999 V2000
   -1.0453   -0.1305    0.7497 C   0  0  0  0  0  0  0  0  0  0  0  0
    0.2413    0.5855    0.3233 C   0  0  0  0  0  0  0  0  0  0  0  0
    1.1282   -0.3595   -0.5021 C   0  0  0  0  0  0  0  0  0  0  0  0
    1.6259   -1.3623    0.3562 O   0  0  0  0  0  0  0  0  0  0  0  0
   -0.0467    1.7643   -0.3878 O   0  0  0  0  0  0  0  0  0  0  0  0
   -1.8065   -0.3807   -0.4157 O   0  0  0  0  0  0  0  0  0  0  0  0
   -1.6015    0.5144    1.4407 H   0  0  0  0  0  0  0  0  0  0  0  0
   -0.7702   -1.0617    1.2561 H   0  0  0  0  0  0  0  0  0  0  0  0
    0.7973    0.8866    1.2170 H   0  0  0  0  0  0  0  0  0  0  0  0
    1.9445    0.2303   -0.9378 H   0  0  0  0  0  0  0  0  0  0  0  0
    0.5259   -0.7950   -1.3096 H   0  0  0  0  0  0  0  0  0  0  0  0
    2.1954   -1.9586   -0.1496 H   0  0  0  0  0  0  0  0  0  0  0  0
   -0.7259    1.5491   -1.0467 H   0  0  0  0  0  0  0  0  0  0  0  0
   -2.6206   -0.8399   -0.1726 H   0  0  0  0  0  0  0  0  0  0  0  0
  1  2  1  0  0  0  0
  2  3  1  0  0  0  0
  3  4  1  0  0  0  0
  2  5  1  0  0  0  0
  1  6  1  0  0  0  0
  1  7  1  0  0  0  0
  1  8  1  0  0  0  0
  2  9  1  0  0  0  0
  3 10  1  0  0  0  0
  3 11  1  0  0  0  0
  4 12  1  0  0  0  0
  5 13  1  0  0  0  0
  6 14  1  0  0  0  0
M  END
