  26
 
 C         -4.0543160974       -0.3918938920        0.0017722747
 C         -3.9186348796        0.9885015169        0.0011652705
 C         -2.6584408547        1.5568610891       -0.0013674141
 C         -1.5181674863        0.7570346127       -0.0028898368
 C         -1.6552834029       -0.6365410088       -0.0027972385
 C         -2.9293764608       -1.1962464287       -0.0005059057
 C         -0.4800738416       -1.5413798725       -0.0064635441
 O         -0.6099157871       -2.7545722699       -0.0116380012
 C          0.8339824259       -0.8904049683       -0.0007538401
 C          1.9847169342       -1.6817475823        0.0014608611
 C          3.2394295070       -1.1197455796        0.0094374872
 C          3.3922353620        0.2733110015        0.0183833676
 C          2.2434275411        1.0697836009        0.0132535445
 C          0.9785656292        0.5058313212        0.0036441508
 C         -0.1919741249        1.4107398709       -0.0057715803
 O         -0.0705271147        2.6222436347       -0.0161866232
 N          4.6287551223        0.8419355994        0.0837980914
 H         -5.0374240726       -0.8388740606        0.0039690517
 H         -4.7954698043        1.6188375447        0.0027774325
 H         -2.5295811581        2.6292371009       -0.0019312565
 H         -3.0126996584       -2.2731253038       -0.0005653083
 H          1.8615433279       -2.7544861493       -0.0052465376
 H          4.1188795003       -1.7472068083        0.0104574586
 H          2.3270002020        2.1469739806        0.0173328273
 H          4.7144123949        1.8282775306       -0.0884778258
 H          5.4358321500        0.2729883692       -0.1024605947
          26
        -45.60792007
 C         -4.0556086424       -0.3880569372        0.0154059099
 C         -3.9188959181        0.9923289573        0.0124910566
 C         -2.6583769573        1.5597023681        0.0038450047
 C         -1.5184368934        0.7590053806       -0.0014085778
 C         -1.6565723975       -0.6343087296        0.0009343269
 C         -2.9312799496       -1.1931160859        0.0092695231
 C         -0.4819783282       -1.5400675554       -0.0067852454
 O         -0.6133498651       -2.7532095543       -0.0118804026
 C          0.8322679377       -0.8903210913       -0.0051606341
 C          1.9829648605       -1.6824144531       -0.0054052278
 C          3.2378985526       -1.1212969102       -0.0041720445
 C          3.3916385121        0.2717892153       -0.0002159425
 C          2.2433875767        1.0686813936       -0.0005504352
 C          0.9779155742        0.5057195731       -0.0035415641
 C         -0.1918917421        1.4115879805       -0.0108564581
 O         -0.0693711289        2.6229805785       -0.0253462675
 N          4.6291955471        0.8401582302        0.0547472276
 H         -5.0388648714       -0.8347525326        0.0223533022
 H         -4.7950247385        1.6237256527        0.0170674665
 H         -2.5278528831        2.6318950162        0.0011891149
 H         -3.0140665667       -2.2700386987        0.0106600825
 H          1.8579356225       -2.7550196347       -0.0091923113
 H          4.1171528044       -1.7492543437       -0.0052666456
 H          2.3271497161        2.1460055619        0.0014532722
 H          4.7140562188        1.8259053282       -0.1210306860
 H          5.4344263221        0.2691538091       -0.1329913627
