 xtb: 6.7.1 (edcfbbe)
          04112512243D

 14 13  0     0  0            999 V2000
   -2.1409   -0.1175    0.7411 C   0  0  0  0  0  0  0  0  0  0  0  0
   -1.5526   -0.1342   -0.6649 C   0  0  0  0  0  0  0  0  0  0  0  0
   -0.2463    0.6538   -0.7409 C   0  0  0  0  0  0  0  0  0  0  0  0
    0.8871   -0.0257   -0.0212 C   0  0  0  0  0  0  0  0  0  0  0  0
    0.9602   -1.2109    0.2223 O   0  0  0  0  0  0  0  0  0  0  0  0
    1.8471    0.8269    0.3124 O   0  0  0  0  0  0  0  0  0  0  0  0
   -1.4521   -0.5832    1.4427 H   0  0  0  0  0  0  0  0  0  0  0  0
   -3.0773   -0.6683    0.7664 H   0  0  0  0  0  0  0  0  0  0  0  0
   -2.3309    0.9030    1.0656 H   0  0  0  0  0  0  0  0  0  0  0  0
   -1.3580   -1.1660   -0.9631 H   0  0  0  0  0  0  0  0  0  0  0  0
   -2.2677    0.2979   -1.3655 H   0  0  0  0  0  0  0  0  0  0  0  0
    0.0697    0.7571   -1.7820 H   0  0  0  0  0  0  0  0  0  0  0  0
   -0.3602    1.6566   -0.3281 H   0  0  0  0  0  0  0  0  0  0  0  0
    2.6012    0.3923    0.7557 H   0  0  0  0  0  0  0  0  0  0  0  0
  1  2  1  0  0  0  0
  2  3  1  0  0  0  0
  3  4  1  0  0  0  0
  4  5  2  0  0  0  0
  4  6  1  0  0  0  0
  1  7  1  0  0  0  0
  1  8  1  0  0  0  0
  1  9  1  0  0  0  0
  2 10  1  0  0  0  0
  2 11  1  0  0  0  0
  3 12  1  0  0  0  0
  3 13  1  0  0  0  0
  6 14  1  0  0  0  0
M  END
