 xtb: 6.7.1 (edcfbbe)
          04112511553D

 24 24  0     0  0            999 V2000
   -2.6562   -1.2164   -0.2793 C   0  0  0  0  0  0  0  0  0  0  0  0
   -2.4616    0.2082    0.2264 C   0  0  0  0  0  0  0  0  0  0  0  0
   -1.1347    0.8570   -0.1772 C   0  0  0  0  0  0  0  0  0  0  0  0
    0.1036    0.3062    0.5402 C   0  0  0  0  0  0  0  0  0  0  0  0
    0.6135   -1.0305   -0.0381 C   0  0  0  0  0  0  0  0  0  0  0  0
    2.1314   -0.8865   -0.1485 C   0  0  0  0  0  0  0  0  0  0  0  0
    2.3081    0.5856   -0.4976 C   0  0  0  0  0  0  0  0  0  0  0  0
    1.3057    1.2733    0.4271 C   0  0  0  0  0  0  0  0  0  0  0  0
   -2.5245   -1.2599   -1.3581 H   0  0  0  0  0  0  0  0  0  0  0  0
   -1.9497   -1.8976    0.1840 H   0  0  0  0  0  0  0  0  0  0  0  0
   -3.6618   -1.5591   -0.0449 H   0  0  0  0  0  0  0  0  0  0  0  0
   -3.2708    0.8271   -0.1698 H   0  0  0  0  0  0  0  0  0  0  0  0
   -2.5460    0.2191    1.3156 H   0  0  0  0  0  0  0  0  0  0  0  0
   -1.0000    0.7710   -1.2577 H   0  0  0  0  0  0  0  0  0  0  0  0
   -1.2142    1.9214    0.0593 H   0  0  0  0  0  0  0  0  0  0  0  0
   -0.1540    0.1778    1.5956 H   0  0  0  0  0  0  0  0  0  0  0  0
    0.3365   -1.8806    0.5837 H   0  0  0  0  0  0  0  0  0  0  0  0
    0.1947   -1.1856   -1.0326 H   0  0  0  0  0  0  0  0  0  0  0  0
    2.6021   -1.0964    0.8135 H   0  0  0  0  0  0  0  0  0  0  0  0
    2.5581   -1.5557   -0.8944 H   0  0  0  0  0  0  0  0  0  0  0  0
    3.3265    0.9398   -0.3450 H   0  0  0  0  0  0  0  0  0  0  0  0
    2.0355    0.7538   -1.5405 H   0  0  0  0  0  0  0  0  0  0  0  0
    1.7586    1.4178    1.4090 H   0  0  0  0  0  0  0  0  0  0  0  0
    1.0089    2.2507    0.0496 H   0  0  0  0  0  0  0  0  0  0  0  0
  1  2  1  0  0  0  0
  2  3  1  0  0  0  0
  3  4  1  0  0  0  0
  4  5  1  0  0  0  0
  5  6  1  0  0  0  0
  6  7  1  0  0  0  0
  4  8  1  0  0  0  0
  7  8  1  0  0  0  0
  1  9  1  0  0  0  0
  1 10  1  0  0  0  0
  1 11  1  0  0  0  0
  2 12  1  0  0  0  0
  2 13  1  0  0  0  0
  3 14  1  0  0  0  0
  3 15  1  0  0  0  0
  4 16  1  0  0  0  0
  5 17  1  0  0  0  0
  5 18  1  0  0  0  0
  6 19  1  0  0  0  0
  6 20  1  0  0  0  0
  7 21  1  0  0  0  0
  7 22  1  0  0  0  0
  8 23  1  0  0  0  0
  8 24  1  0  0  0  0
M  END
