 xtb: 6.7.1 (edcfbbe)
          04112511413D

 14 13  0     0  0            999 V2000
   -1.0832   -0.6150   -0.0171 C   0  0  0  0  0  0  0  0  0  0  0  0
    0.0195    0.2497    0.6248 C   0  0  0  0  0  0  0  0  0  0  0  0
    1.3487   -0.5164    0.6512 C   0  0  0  0  0  0  0  0  0  0  0  0
    1.7956   -0.8438   -0.6408 O   0  0  0  0  0  0  0  0  0  0  0  0
    0.2389    1.4375   -0.1150 O   0  0  0  0  0  0  0  0  0  0  0  0
   -2.2568    0.1225   -0.2817 O   0  0  0  0  0  0  0  0  0  0  0  0
   -1.3632   -1.4047    0.6824 H   0  0  0  0  0  0  0  0  0  0  0  0
   -0.6926   -1.0746   -0.9306 H   0  0  0  0  0  0  0  0  0  0  0  0
   -0.2650    0.4989    1.6556 H   0  0  0  0  0  0  0  0  0  0  0  0
    1.2220   -1.4593    1.1848 H   0  0  0  0  0  0  0  0  0  0  0  0
    2.0969    0.0956    1.1706 H   0  0  0  0  0  0  0  0  0  0  0  0
    1.8637   -0.0186   -1.1450 H   0  0  0  0  0  0  0  0  0  0  0  0
   -0.5292    2.0156   -0.0127 H   0  0  0  0  0  0  0  0  0  0  0  0
   -2.1293    0.6348   -1.0924 H   0  0  0  0  0  0  0  0  0  0  0  0
  1  2  1  0  0  0  0
  2  3  1  0  0  0  0
  3  4  1  0  0  0  0
  2  5  1  0  0  0  0
  1  6  1  0  0  0  0
  1  7  1  0  0  0  0
  1  8  1  0  0  0  0
  2  9  1  0  0  0  0
  3 10  1  0  0  0  0
  3 11  1  0  0  0  0
  4 12  1  0  0  0  0
  5 13  1  0  0  0  0
  6 14  1  0  0  0  0
M  END
