 xtb: 6.7.1 (edcfbbe)
          04112513073D

 21 21  0     0  0            999 V2000
   -2.9831    2.1717   -0.0150 C   0  0  0  0  0  0  0  0  0  0  0  0
   -2.6223    0.7976   -0.0253 O   0  0  0  0  0  0  0  0  0  0  0  0
   -1.3239    0.4100   -0.0410 C   0  0  0  0  0  0  0  0  0  0  0  0
   -1.1135   -0.9752   -0.0650 C   0  0  0  0  0  0  0  0  0  0  0  0
    0.1462   -1.5265   -0.0937 C   0  0  0  0  0  0  0  0  0  0  0  0
    1.2614   -0.6995   -0.0921 C   0  0  0  0  0  0  0  0  0  0  0  0
    1.1114    0.6803   -0.0427 C   0  0  0  0  0  0  0  0  0  0  0  0
   -0.1921    1.2298   -0.0267 C   0  0  0  0  0  0  0  0  0  0  0  0
   -0.3092    2.5818    0.0011 O   0  0  0  0  0  0  0  0  0  0  0  0
    2.0762    1.6478   -0.0332 O   0  0  0  0  0  0  0  0  0  0  0  0
    3.3928    1.3879    0.4316 C   0  0  0  0  0  0  0  0  0  0  0  0
    2.8017   -1.5018   -0.1934 Cl  0  0  0  0  0  0  0  0  0  0  0  0
   -2.5007   -2.0057   -0.0712 Cl  0  0  0  0  0  0  0  0  0  0  0  0
   -2.6154    2.6699    0.8819 H   0  0  0  0  0  0  0  0  0  0  0  0
   -4.0710    2.1657   -0.0187 H   0  0  0  0  0  0  0  0  0  0  0  0
   -2.6093    2.6849   -0.9010 H   0  0  0  0  0  0  0  0  0  0  0  0
    0.2666   -2.5958   -0.1258 H   0  0  0  0  0  0  0  0  0  0  0  0
    0.5844    2.9703    0.0183 H   0  0  0  0  0  0  0  0  0  0  0  0
    3.8152    2.3709    0.6313 H   0  0  0  0  0  0  0  0  0  0  0  0
    3.9900    0.8831   -0.3280 H   0  0  0  0  0  0  0  0  0  0  0  0
    3.3805    0.7977    1.3480 H   0  0  0  0  0  0  0  0  0  0  0  0
  1  2  1  0  0  0  0
  2  3  1  0  0  0  0
  3  4  4  0  0  0  0
  4  5  4  0  0  0  0
  5  6  4  0  0  0  0
  6  7  4  0  0  0  0
  3  8  4  0  0  0  0
  7  8  4  0  0  0  0
  8  9  1  0  0  0  0
  7 10  1  0  0  0  0
 10 11  1  0  0  0  0
  6 12  1  0  0  0  0
  4 13  1  0  0  0  0
  1 14  1  0  0  0  0
  1 15  1  0  0  0  0
  1 16  1  0  0  0  0
  5 17  1  0  0  0  0
  9 18  1  0  0  0  0
 11 19  1  0  0  0  0
 11 20  1  0  0  0  0
 11 21  1  0  0  0  0
M  END
