 xtb: 6.7.1 (edcfbbe)
          04112512183D

 26 26  0     0  0            999 V2000
    4.1915   -0.1589   -0.0367 C   0  0  0  0  0  0  0  0  0  0  0  0
    2.7715   -0.4085    0.0869 N   0  0  0  0  0  0  0  0  0  0  0  0
    2.4305   -1.6554    0.7322 C   0  0  0  0  0  0  0  0  0  0  0  0
    1.8889    0.4577   -0.4307 C   0  0  0  0  0  0  0  0  0  0  0  0
    2.2430    1.4542   -1.0729 O   0  0  0  0  0  0  0  0  0  0  0  0
    0.4374    0.1968   -0.2004 C   0  0  0  0  0  0  0  0  0  0  0  0
   -0.0979    0.1273    1.0849 C   0  0  0  0  0  0  0  0  0  0  0  0
   -1.4545   -0.0262    1.2665 C   0  0  0  0  0  0  0  0  0  0  0  0
   -2.3121   -0.1186    0.1672 C   0  0  0  0  0  0  0  0  0  0  0  0
   -1.7831   -0.0371   -1.1171 C   0  0  0  0  0  0  0  0  0  0  0  0
   -0.4207    0.1330   -1.2894 C   0  0  0  0  0  0  0  0  0  0  0  0
   -3.6306   -0.2797    0.4584 O   0  0  0  0  0  0  0  0  0  0  0  0
   -4.5590   -0.3705   -0.6069 C   0  0  0  0  0  0  0  0  0  0  0  0
    4.3301    0.8156   -0.5005 H   0  0  0  0  0  0  0  0  0  0  0  0
    4.6580   -0.9244   -0.6584 H   0  0  0  0  0  0  0  0  0  0  0  0
    4.6530   -0.1657    0.9509 H   0  0  0  0  0  0  0  0  0  0  0  0
    2.6433   -1.5997    1.8016 H   0  0  0  0  0  0  0  0  0  0  0  0
    3.0356   -2.4526    0.2986 H   0  0  0  0  0  0  0  0  0  0  0  0
    1.3799   -1.8870    0.5856 H   0  0  0  0  0  0  0  0  0  0  0  0
    0.5497    0.2115    1.9436 H   0  0  0  0  0  0  0  0  0  0  0  0
   -1.8835   -0.0758    2.2543 H   0  0  0  0  0  0  0  0  0  0  0  0
   -2.4174   -0.0948   -1.9862 H   0  0  0  0  0  0  0  0  0  0  0  0
   -0.0110    0.2147   -2.2852 H   0  0  0  0  0  0  0  0  0  0  0  0
   -4.3494   -1.2366   -1.2395 H   0  0  0  0  0  0  0  0  0  0  0  0
   -4.5567    0.5402   -1.2109 H   0  0  0  0  0  0  0  0  0  0  0  0
   -5.5289   -0.4910   -0.1301 H   0  0  0  0  0  0  0  0  0  0  0  0
  1  2  1  0  0  0  0
  2  3  1  0  0  0  0
  2  4  4  0  0  0  0
  4  5  2  0  0  0  0
  4  6  1  0  0  0  0
  6  7  4  0  0  0  0
  7  8  4  0  0  0  0
  8  9  4  0  0  0  0
  9 10  4  0  0  0  0
  6 11  4  0  0  0  0
 10 11  4  0  0  0  0
  9 12  1  0  0  0  0
 12 13  1  0  0  0  0
  1 14  1  0  0  0  0
  1 15  1  0  0  0  0
  1 16  1  0  0  0  0
  3 17  1  0  0  0  0
  3 18  1  0  0  0  0
  3 19  1  0  0  0  0
  7 20  1  0  0  0  0
  8 21  1  0  0  0  0
 10 22  1  0  0  0  0
 11 23  1  0  0  0  0
 13 24  1  0  0  0  0
 13 25  1  0  0  0  0
 13 26  1  0  0  0  0
M  END
