 xtb: 6.7.1 (edcfbbe)
          04072508003D

 21 20  0     0  0            999 V2000
    2.1832   -0.9269   -0.6132 C   0  0  0  0  0  0  0  0  0  0  0  0
    1.2022   -0.1398    0.2512 C   0  0  0  0  0  0  0  0  0  0  0  0
    1.7770    1.2287    0.6268 C   0  0  0  0  0  0  0  0  0  0  0  0
    0.0001    0.0003   -0.4998 O   0  0  0  0  0  0  0  0  0  0  0  0
   -1.2024    0.1402    0.2507 C   0  0  0  0  0  0  0  0  0  0  0  0
   -2.1829    0.9276   -0.6140 C   0  0  0  0  0  0  0  0  0  0  0  0
   -1.7773   -1.2284    0.6257 C   0  0  0  0  0  0  0  0  0  0  0  0
    2.3646   -0.3856   -1.5375 H   0  0  0  0  0  0  0  0  0  0  0  0
    3.1212   -1.0627   -0.0841 H   0  0  0  0  0  0  0  0  0  0  0  0
    1.7645   -1.8987   -0.8593 H   0  0  0  0  0  0  0  0  0  0  0  0
    0.9934   -0.7075    1.1709 H   0  0  0  0  0  0  0  0  0  0  0  0
    1.0644    1.7951    1.2223 H   0  0  0  0  0  0  0  0  0  0  0  0
    1.9968    1.7915   -0.2767 H   0  0  0  0  0  0  0  0  0  0  0  0
    2.6893    1.1021    1.2017 H   0  0  0  0  0  0  0  0  0  0  0  0
   -0.9940    0.7077    1.1707 H   0  0  0  0  0  0  0  0  0  0  0  0
   -3.1212    1.0634   -0.0852 H   0  0  0  0  0  0  0  0  0  0  0  0
   -1.7640    1.8995   -0.8596 H   0  0  0  0  0  0  0  0  0  0  0  0
   -2.3639    0.3866   -1.5385 H   0  0  0  0  0  0  0  0  0  0  0  0
   -2.6899   -1.1018    1.2002 H   0  0  0  0  0  0  0  0  0  0  0  0
   -1.0650   -1.7949    1.2213 H   0  0  0  0  0  0  0  0  0  0  0  0
   -1.9967   -1.7909   -0.2781 H   0  0  0  0  0  0  0  0  0  0  0  0
  1  2  1  0  0  0  0
  2  3  1  0  0  0  0
  2  4  1  0  0  0  0
  4  5  1  0  0  0  0
  5  6  1  0  0  0  0
  5  7  1  0  0  0  0
  1  8  1  0  0  0  0
  1  9  1  0  0  0  0
  1 10  1  0  0  0  0
  2 11  1  0  0  0  0
  3 12  1  0  0  0  0
  3 13  1  0  0  0  0
  3 14  1  0  0  0  0
  5 15  1  0  0  0  0
  6 16  1  0  0  0  0
  6 17  1  0  0  0  0
  6 18  1  0  0  0  0
  7 19  1  0  0  0  0
  7 20  1  0  0  0  0
  7 21  1  0  0  0  0
M  END
