20
 xtb: 6.7.1 (edcfbbe)
C            2.09259274637896        0.97950553513856       -0.44719156032713
C            1.73902314879159       -0.39451966844880        0.11680692845529
C            0.33969053056364       -0.50267937002713        0.73152033415469
C           -0.82640489511787       -0.22511286195919       -0.24290251243046
C           -1.31485217012176        1.22383054835445       -0.15956152697367
C           -1.99514156047431       -1.17742290623645        0.01917381765299
H            1.44300879248442        1.25272220071011       -1.28490055128145
H            2.00053651584989        1.75834241900122        0.31865417599389
H            3.12425786436947        0.99370618400728       -0.81495950401830
H            1.82949754279344       -1.14447964660023       -0.68061852639575
H            2.47776774913245       -0.66808583405349        0.88094689253842
H            0.23211129340621       -1.51689399547274        1.13657931321723
H            0.26020030785492        0.17931396808924        1.59017213548925
H           -0.46433551488690       -0.40906481784381       -1.26521051180518
H           -2.08644977923851        1.42425012974550       -0.91163111508800
H           -0.50403604043619        1.94249221722530       -0.30808084323150
H           -1.75258846148267        1.41655085726133        0.82783917886542
H           -1.69407475361640       -2.22238222061665       -0.11273607239559
H           -2.36142215575774       -1.06032354392067        1.04685675172283
H           -2.83235742408613       -0.97706194586247       -0.65917860809603
