 xtb: 6.7.1 (edcfbbe)
          04112512243D

 23 22  0     0  0            999 V2000
    2.5154    0.7829    0.0599 C   0  0  0  0  0  0  0  0  0  0  0  0
    1.3026    0.5849   -0.8449 C   0  0  0  0  0  0  0  0  0  0  0  0
    0.2635   -0.4792   -0.4005 C   0  0  0  0  0  0  0  0  0  0  0  0
    0.2298   -1.2485   -1.1813 H   0  0  0  0  0  0  0  0  0  0  0  0
    0.6307   -1.1950    0.8989 C   0  0  0  0  0  0  0  0  0  0  0  0
   -1.1507    0.1420   -0.3468 C   0  0  0  0  0  0  0  0  0  0  0  0
   -2.2455   -0.9251   -0.3475 C   0  0  0  0  0  0  0  0  0  0  0  0
   -1.3416    1.0805    0.8435 C   0  0  0  0  0  0  0  0  0  0  0  0
    2.2195    1.1043    1.0545 H   0  0  0  0  0  0  0  0  0  0  0  0
    3.0994   -0.1288    0.1473 H   0  0  0  0  0  0  0  0  0  0  0  0
    3.1558    1.5530   -0.3659 H   0  0  0  0  0  0  0  0  0  0  0  0
    1.6668    0.3205   -1.8402 H   0  0  0  0  0  0  0  0  0  0  0  0
    0.8017    1.5501   -0.9433 H   0  0  0  0  0  0  0  0  0  0  0  0
    0.7210   -0.5023    1.7292 H   0  0  0  0  0  0  0  0  0  0  0  0
   -0.1308   -1.9303    1.1446 H   0  0  0  0  0  0  0  0  0  0  0  0
    1.5736   -1.7229    0.7853 H   0  0  0  0  0  0  0  0  0  0  0  0
   -1.2702    0.7282   -1.2665 H   0  0  0  0  0  0  0  0  0  0  0  0
   -2.2272   -1.5072    0.5702 H   0  0  0  0  0  0  0  0  0  0  0  0
   -2.1226   -1.6025   -1.1896 H   0  0  0  0  0  0  0  0  0  0  0  0
   -3.2230   -0.4546   -0.4268 H   0  0  0  0  0  0  0  0  0  0  0  0
   -2.2764    1.6272    0.7394 H   0  0  0  0  0  0  0  0  0  0  0  0
   -0.5310    1.8018    0.9074 H   0  0  0  0  0  0  0  0  0  0  0  0
   -1.3817    0.5191    1.7731 H   0  0  0  0  0  0  0  0  0  0  0  0
  1  2  1  0  0  0  0
  2  3  1  0  0  0  0
  3  4  1  0  0  0  0
  3  5  1  0  0  0  0
  3  6  1  0  0  0  0
  6  7  1  0  0  0  0
  6  8  1  0  0  0  0
  1  9  1  0  0  0  0
  1 10  1  0  0  0  0
  1 11  1  0  0  0  0
  2 12  1  0  0  0  0
  2 13  1  0  0  0  0
  5 14  1  0  0  0  0
  5 15  1  0  0  0  0
  5 16  1  0  0  0  0
  6 17  1  0  0  0  0
  7 18  1  0  0  0  0
  7 19  1  0  0  0  0
  7 20  1  0  0  0  0
  8 21  1  0  0  0  0
  8 22  1  0  0  0  0
  8 23  1  0  0  0  0
M  END
