  20
 
 C         -2.3444429135       -1.2191638209       -0.1929154416
 N         -1.5974649317        0.0018891289       -0.0340272816
 C         -2.3433522158        1.2132921966        0.1947519937
 C         -0.2242956467       -0.0012608478       -0.0168303286
 C          0.5004159522       -1.1933694783        0.1155719794
 C          1.8807982975       -1.1864662595        0.1263604291
 C          2.5867850942       -0.0013734267        0.0120296866
 C          1.8835811893        1.1837701588       -0.1205445835
 C          0.5035631080        1.1903764665       -0.1392833550
 H         -1.8738212057       -1.8555124784       -0.9435334921
 H         -3.3492049197       -0.9816018007       -0.5388197531
 H         -2.4259414662       -1.7835727279        0.7450851866
 H         -1.8373799369        1.8394039667        0.9322820502
 H         -3.3279076477        0.9620486029        0.5894280148
 H         -2.4784990880        1.7948971851       -0.7268054336
 H         -0.0147529740       -2.1339192861        0.2285978837
 H          2.4114608977       -2.1221050125        0.2337856386
 H          3.6660527445       -0.0013499764        0.0248575018
 H          2.4166561283        2.1190117821       -0.2186611791
 H         -0.0104252078        2.1296734845       -0.2685694640
          20
        -25.64609185
 C         -2.3312875269        1.2325569273       -0.0630683750
 N         -1.6085062310       -0.0002640921        0.1367709710
 C         -2.3306823575       -1.2326792634       -0.0681117336
 C         -0.2317422117        0.0000635570        0.0508312909
 C          0.4977097928       -1.1964939424        0.0253880868
 C          1.8777933855       -1.1899140444       -0.0141043320
 C          2.5836637468        0.0000915294       -0.0351144200
 C          1.8776506271        1.1900336572       -0.0168067080
 C          0.4975352429        1.1966242531        0.0226365566
 H         -3.3987784339        1.0431587880        0.0273143273
 H         -2.1408960654        1.6736862156       -1.0497375756
 H         -2.0569125076        1.9602508681        0.7035878003
 H         -2.0614029037       -1.9612291830        0.6994752686
 H         -2.1344305314       -1.6730452478       -1.0538116755
 H         -3.3985156236       -1.0429860844        0.0156752900
 H         -0.0087969041       -2.1476122362        0.0362872285
 H          2.4074121133       -2.1320678496       -0.0325832652
 H          3.6624956125        0.0001619594       -0.0684060984
 H          2.4072306362        2.1321729130       -0.0374229022
 H         -0.0088978137        2.1478113411        0.0309456404
