 xtb: 6.7.1 (edcfbbe)
          04112511583D

 20 19  0     0  0            999 V2000
    2.4754    0.8218    0.2861 C   0  0  0  0  0  0  0  0  0  0  0  0
    1.5326    0.0051   -0.5911 C   0  0  0  0  0  0  0  0  0  0  0  0
    0.3900   -0.6390    0.2129 C   0  0  0  0  0  0  0  0  0  0  0  0
   -1.0081   -0.2753   -0.3019 C   0  0  0  0  0  0  0  0  0  0  0  0
   -1.3359    1.1885   -0.0149 C   0  0  0  0  0  0  0  0  0  0  0  0
   -2.0591   -1.1785    0.3416 C   0  0  0  0  0  0  0  0  0  0  0  0
    2.9290    0.1918    1.0480 H   0  0  0  0  0  0  0  0  0  0  0  0
    3.2702    1.2609   -0.3128 H   0  0  0  0  0  0  0  0  0  0  0  0
    1.9348    1.6252    0.7812 H   0  0  0  0  0  0  0  0  0  0  0  0
    1.1191    0.6543   -1.3649 H   0  0  0  0  0  0  0  0  0  0  0  0
    2.1078   -0.7698   -1.1011 H   0  0  0  0  0  0  0  0  0  0  0  0
    0.4963   -1.7252    0.1894 H   0  0  0  0  0  0  0  0  0  0  0  0
    0.4612   -0.3319    1.2583 H   0  0  0  0  0  0  0  0  0  0  0  0
   -1.0317   -0.4363   -1.3860 H   0  0  0  0  0  0  0  0  0  0  0  0
   -1.3532    1.3648    1.0587 H   0  0  0  0  0  0  0  0  0  0  0  0
   -2.3114    1.4469   -0.4205 H   0  0  0  0  0  0  0  0  0  0  0  0
   -0.5968    1.8500   -0.4588 H   0  0  0  0  0  0  0  0  0  0  0  0
   -3.0536   -0.9208   -0.0151 H   0  0  0  0  0  0  0  0  0  0  0  0
   -1.8688   -2.2222    0.1023 H   0  0  0  0  0  0  0  0  0  0  0  0
   -2.0424   -1.0654    1.4235 H   0  0  0  0  0  0  0  0  0  0  0  0
  1  2  1  0  0  0  0
  2  3  1  0  0  0  0
  3  4  1  0  0  0  0
  4  5  1  0  0  0  0
  4  6  1  0  0  0  0
  1  7  1  0  0  0  0
  1  8  1  0  0  0  0
  1  9  1  0  0  0  0
  2 10  1  0  0  0  0
  2 11  1  0  0  0  0
  3 12  1  0  0  0  0
  3 13  1  0  0  0  0
  4 14  1  0  0  0  0
  5 15  1  0  0  0  0
  5 16  1  0  0  0  0
  5 17  1  0  0  0  0
  6 18  1  0  0  0  0
  6 19  1  0  0  0  0
  6 20  1  0  0  0  0
M  END
