 xtb: 6.7.1 (edcfbbe)
          04112511243D

 20 19  0     0  0            999 V2000
    0.0732   -2.1049    0.5089 C   0  0  0  0  0  0  0  0  0  0  0  0
   -0.0975   -1.1718   -0.6770 C   0  0  0  0  0  0  0  0  0  0  0  0
    0.8875   -0.1716   -0.8882 O   0  0  0  0  0  0  0  0  0  0  0  0
    1.7334    0.3178    0.0395 C   0  0  0  0  0  0  0  0  0  0  0  0
    1.8980   -0.1387    1.1420 O   0  0  0  0  0  0  0  0  0  0  0  0
    2.5010    1.4686   -0.5369 C   0  0  0  0  0  0  0  0  0  0  0  0
   -1.3879   -0.5548   -0.6625 O   0  0  0  0  0  0  0  0  0  0  0  0
   -1.6678    0.4720    0.1542 C   0  0  0  0  0  0  0  0  0  0  0  0
   -0.8694    0.9695    0.9151 O   0  0  0  0  0  0  0  0  0  0  0  0
   -3.0829    0.9185   -0.0325 C   0  0  0  0  0  0  0  0  0  0  0  0
   -0.7004   -2.8652    0.4490 H   0  0  0  0  0  0  0  0  0  0  0  0
   -0.0200   -1.5611    1.4454 H   0  0  0  0  0  0  0  0  0  0  0  0
    1.0520   -2.5728    0.4725 H   0  0  0  0  0  0  0  0  0  0  0  0
   -0.1094   -1.7385   -1.6172 H   0  0  0  0  0  0  0  0  0  0  0  0
    3.3731    1.0717   -1.0525 H   0  0  0  0  0  0  0  0  0  0  0  0
    1.8881    2.0102   -1.2492 H   0  0  0  0  0  0  0  0  0  0  0  0
    2.8323    2.1155    0.2688 H   0  0  0  0  0  0  0  0  0  0  0  0
   -3.1755    1.3839   -1.0109 H   0  0  0  0  0  0  0  0  0  0  0  0
   -3.7419    0.0561   -0.0058 H   0  0  0  0  0  0  0  0  0  0  0  0
   -3.3432    1.6328    0.7414 H   0  0  0  0  0  0  0  0  0  0  0  0
  1  2  1  0  0  0  0
  2  3  1  0  0  0  0
  3  4  1  0  0  0  0
  4  5  2  0  0  0  0
  4  6  1  0  0  0  0
  2  7  1  0  0  0  0
  7  8  1  0  0  0  0
  8  9  2  0  0  0  0
  8 10  1  0  0  0  0
  1 11  1  0  0  0  0
  1 12  1  0  0  0  0
  1 13  1  0  0  0  0
  2 14  1  0  0  0  0
  6 15  1  0  0  0  0
  6 16  1  0  0  0  0
  6 17  1  0  0  0  0
 10 18  1  0  0  0  0
 10 19  1  0  0  0  0
 10 20  1  0  0  0  0
M  END
