 23

C      1.399000     1.056000    -1.841000
C      1.456000    -0.401000    -1.409000
C      2.641000    -0.722000    -0.496000
C      2.694000    -2.189000    -0.064000
C      3.895000    -2.455000     0.846000
C      3.950000    -3.920000     1.280000
C      5.143000    -4.189000     2.184000
H      0.533000     1.222000    -2.490000
H      2.298000     1.336000    -2.399000
H      1.301000     1.726000    -0.982000
H      1.530000    -1.027000    -2.306000
H      0.517000    -0.670000    -0.911000
H      3.564000    -0.473000    -1.034000
H      2.608000    -0.075000     0.390000
H      1.775000    -2.456000     0.469000
H      2.756000    -2.831000    -0.950000
H      3.835000    -1.812000     1.732000
H      4.821000    -2.193000     0.319000
H      3.029000    -4.186000     1.811000
H      4.015000    -4.567000     0.397000
H      5.175000    -5.240000     2.489000
H      6.082000    -3.950000     1.675000
H      5.080000    -3.575000     3.087000
