  23
 
 C          1.3990000000        1.0560000000       -1.8410000000
 C          1.4560000000       -0.4010000000       -1.4090000000
 C          2.6410000000       -0.7220000000       -0.4960000000
 C          2.6940000000       -2.1890000000       -0.0640000000
 C          3.8950000000       -2.4550000000        0.8460000000
 C          3.9500000000       -3.9200000000        1.2800000000
 C          5.1430000000       -4.1890000000        2.1840000000
 H          0.5330000000        1.2220000000       -2.4900000000
 H          2.2980000000        1.3360000000       -2.3990000000
 H          1.3010000000        1.7260000000       -0.9820000000
 H          1.5300000000       -1.0270000000       -2.3060000000
 H          0.5170000000       -0.6700000000       -0.9110000000
 H          3.5640000000       -0.4730000000       -1.0340000000
 H          2.6080000000       -0.0750000000        0.3900000000
 H          1.7750000000       -2.4560000000        0.4690000000
 H          2.7560000000       -2.8310000000       -0.9500000000
 H          3.8350000000       -1.8120000000        1.7320000000
 H          4.8210000000       -2.1930000000        0.3190000000
 H          3.0290000000       -4.1860000000        1.8110000000
 H          4.0150000000       -4.5670000000        0.3970000000
 H          5.1750000000       -5.2400000000        2.4890000000
 H          6.0820000000       -3.9500000000        1.6750000000
 H          5.0800000000       -3.5750000000        3.0870000000
