 xtb: 6.7.1 (edcfbbe)
          04112511053D

 19 19  0     0  0            999 V2000
   -3.6622   -0.1126   -0.0006 C   0  0  0  0  0  0  0  0  0  0  0  0
   -2.2854    0.5325   -0.0006 C   0  0  0  0  0  0  0  0  0  0  0  0
   -1.3219   -0.5112    0.0011 O   0  0  0  0  0  0  0  0  0  0  0  0
    0.0035   -0.1920    0.0006 C   0  0  0  0  0  0  0  0  0  0  0  0
    0.5136    1.1014    0.0006 C   0  0  0  0  0  0  0  0  0  0  0  0
    1.8855    1.2990   -0.0000 C   0  0  0  0  0  0  0  0  0  0  0  0
    2.7565    0.2260   -0.0006 C   0  0  0  0  0  0  0  0  0  0  0  0
    2.2479   -1.0643   -0.0004 C   0  0  0  0  0  0  0  0  0  0  0  0
    0.8850   -1.2748    0.0001 C   0  0  0  0  0  0  0  0  0  0  0  0
   -3.7783   -0.7346    0.8824 H   0  0  0  0  0  0  0  0  0  0  0  0
   -4.4266    0.6577   -0.0018 H   0  0  0  0  0  0  0  0  0  0  0  0
   -3.7776   -0.7367   -0.8823 H   0  0  0  0  0  0  0  0  0  0  0  0
   -2.1559    1.1580    0.8923 H   0  0  0  0  0  0  0  0  0  0  0  0
   -2.1547    1.1562   -0.8947 H   0  0  0  0  0  0  0  0  0  0  0  0
   -0.1423    1.9573    0.0010 H   0  0  0  0  0  0  0  0  0  0  0  0
    2.2699    2.3079    0.0002 H   0  0  0  0  0  0  0  0  0  0  0  0
    3.8227    0.3905   -0.0012 H   0  0  0  0  0  0  0  0  0  0  0  0
    2.9176   -1.9107   -0.0012 H   0  0  0  0  0  0  0  0  0  0  0  0
    0.4696   -2.2704   -0.0001 H   0  0  0  0  0  0  0  0  0  0  0  0
  1  2  1  0  0  0  0
  2  3  1  0  0  0  0
  3  4  1  0  0  0  0
  4  5  4  0  0  0  0
  5  6  4  0  0  0  0
  6  7  4  0  0  0  0
  7  8  4  0  0  0  0
  4  9  4  0  0  0  0
  8  9  4  0  0  0  0
  1 10  1  0  0  0  0
  1 11  1  0  0  0  0
  1 12  1  0  0  0  0
  2 13  1  0  0  0  0
  2 14  1  0  0  0  0
  5 15  1  0  0  0  0
  6 16  1  0  0  0  0
  7 17  1  0  0  0  0
  8 18  1  0  0  0  0
  9 19  1  0  0  0  0
M  END
