 xtb: 6.7.1 (edcfbbe)
          04112511553D

 24 24  0     0  0            999 V2000
   -3.0181    0.2506    0.7246 C   0  0  0  0  0  0  0  0  0  0  0  0
   -2.2857    0.2137   -0.6121 C   0  0  0  0  0  0  0  0  0  0  0  0
   -1.0673   -0.7119   -0.6079 C   0  0  0  0  0  0  0  0  0  0  0  0
    0.0698   -0.2513    0.3055 C   0  0  0  0  0  0  0  0  0  0  0  0
    1.2679   -1.2297    0.2758 C   0  0  0  0  0  0  0  0  0  0  0  0
    2.4699   -0.4188   -0.2178 C   0  0  0  0  0  0  0  0  0  0  0  0
    2.1414    1.0079    0.2090 C   0  0  0  0  0  0  0  0  0  0  0  0
    0.6516    1.1126   -0.1035 C   0  0  0  0  0  0  0  0  0  0  0  0
   -3.2926   -0.7549    1.0358 H   0  0  0  0  0  0  0  0  0  0  0  0
   -2.3968    0.6931    1.4987 H   0  0  0  0  0  0  0  0  0  0  0  0
   -3.9255    0.8439    0.6400 H   0  0  0  0  0  0  0  0  0  0  0  0
   -2.9780   -0.1370   -1.3814 H   0  0  0  0  0  0  0  0  0  0  0  0
   -1.9768    1.2243   -0.8841 H   0  0  0  0  0  0  0  0  0  0  0  0
   -1.3867   -1.7098   -0.2962 H   0  0  0  0  0  0  0  0  0  0  0  0
   -0.6835   -0.7904   -1.6285 H   0  0  0  0  0  0  0  0  0  0  0  0
   -0.3095   -0.1887    1.3282 H   0  0  0  0  0  0  0  0  0  0  0  0
    1.4633   -1.6138    1.2774 H   0  0  0  0  0  0  0  0  0  0  0  0
    1.0697   -2.0825   -0.3726 H   0  0  0  0  0  0  0  0  0  0  0  0
    3.4104   -0.7782    0.1972 H   0  0  0  0  0  0  0  0  0  0  0  0
    2.5350   -0.4673   -1.3059 H   0  0  0  0  0  0  0  0  0  0  0  0
    2.3095    1.1247    1.2809 H   0  0  0  0  0  0  0  0  0  0  0  0
    2.7342    1.7543   -0.3182 H   0  0  0  0  0  0  0  0  0  0  0  0
    0.1744    1.9394    0.4205 H   0  0  0  0  0  0  0  0  0  0  0  0
    0.5177    1.2631   -1.1765 H   0  0  0  0  0  0  0  0  0  0  0  0
  1  2  1  0  0  0  0
  2  3  1  0  0  0  0
  3  4  1  0  0  0  0
  4  5  1  0  0  0  0
  5  6  1  0  0  0  0
  6  7  1  0  0  0  0
  4  8  1  0  0  0  0
  7  8  1  0  0  0  0
  1  9  1  0  0  0  0
  1 10  1  0  0  0  0
  1 11  1  0  0  0  0
  2 12  1  0  0  0  0
  2 13  1  0  0  0  0
  3 14  1  0  0  0  0
  3 15  1  0  0  0  0
  4 16  1  0  0  0  0
  5 17  1  0  0  0  0
  5 18  1  0  0  0  0
  6 19  1  0  0  0  0
  6 20  1  0  0  0  0
  7 21  1  0  0  0  0
  7 22  1  0  0  0  0
  8 23  1  0  0  0  0
  8 24  1  0  0  0  0
M  END
