 25

C      1.010000    -3.843000    -1.028000
C      0.093000    -2.648000    -0.823000
C      0.810000    -1.509000    -0.099000
C     -0.116000    -0.308000     0.105000
C      0.605000     0.831000     0.830000
C     -0.279000     2.059000     1.060000
C      0.440000     3.195000     1.783000
C     -0.450000     4.397000     2.000000
O     -1.621000     4.473000     1.644000
H      0.488000    -4.654000    -1.547000
H      1.356000    -4.225000    -0.063000
H      1.889000    -3.567000    -1.619000
H     -0.784000    -2.963000    -0.246000
H     -0.268000    -2.300000    -1.798000
H      1.174000    -1.863000     0.873000
H      1.689000    -1.200000    -0.679000
H     -0.994000    -0.617000     0.686000
H     -0.476000     0.036000    -0.871000
H      1.500000     1.121000     0.266000
H      0.951000     0.471000     1.807000
H     -0.671000     2.418000     0.101000
H     -1.150000     1.749000     1.651000
H      0.786000     2.863000     2.768000
H      1.307000     3.538000     1.211000
H      0.034000     5.245000     2.514000
