13
 xtb: 6.7.1 (edcfbbe)
C           -1.93046940726517        0.45109451575435       -0.46485238893085
O           -1.24254720305965       -0.28755206131093        0.55969831838893
C            0.04955492947526       -0.67369575280433        0.18264339076651
O            0.89923283406282        0.47103926758545        0.18490840550530
C            2.22196061102346        0.12146290773418       -0.23393409400648
H           -2.95580882914967        0.58901153144029       -0.11626826584759
H           -1.93700964029167       -0.11397820720868       -1.40590166258797
H           -1.47000764421838        1.43146022298577       -0.62940510277835
H            0.39550628085215       -1.40182631609344        0.93018777801008
H            0.04996003750732       -1.12909348234125       -0.82396438054186
H            2.81856849763493        1.03526373837900       -0.20983480045054
H            2.21995108442279       -0.28339108861643       -1.25542668245589
H            2.66836147660019       -0.62000597109662        0.44349564803414
