  19
 
 C          0.5840000000       -1.0130000000       -3.5060000000
 O          0.6720000000       -1.0310000000       -2.0780000000
 C          1.9290000000       -1.0140000000       -1.5660000000
 O          2.9700000000       -0.9850000000       -2.2040000000
 C          1.8850000000       -1.0360000000       -0.1120000000
 C          2.9210000000       -1.6310000000        0.6080000000
 C          2.8780000000       -1.6520000000        2.0020000000
 C          1.8000000000       -1.0790000000        2.6760000000
 C          0.7640000000       -0.4840000000        1.9550000000
 C          0.8070000000       -0.4630000000        0.5610000000
 O          1.7570000000       -1.0990000000        4.0360000000
 H         -0.4660000000       -1.0290000000       -3.8070000000
 H          1.1050000000       -1.8820000000       -3.9160000000
 H          1.0540000000       -0.1000000000       -3.8800000000
 H          3.7660000000       -2.0810000000        0.0940000000
 H          3.6890000000       -2.1160000000        2.5580000000
 H         -0.0790000000       -0.0360000000        2.4740000000
 H         -0.0050000000        0.0040000000        0.0090000000
 H          2.5430000000       -1.5440000000        4.3910000000
