  15
 
 C         -0.1414669538       -1.3530942335        0.0000811327
 C          1.2267325678       -1.1846351433        0.0001359850
 C          1.7734710004        0.0979591182        0.0000622572
 C          0.9307953666        1.2113388995       -0.0000966737
 C         -0.4329761168        1.0371217644       -0.0001338646
 C         -0.9894491986       -0.2459890936       -0.0000328956
 C         -2.4414871206       -0.4168719797       -0.0000172388
 O         -3.2530301129        0.4752145637        0.0000547128
 O          3.1081307720        0.3090554436        0.0001245676
 H         -0.5612902354       -2.3487390911        0.0001282674
 H          1.8832166076       -2.0451023629        0.0002291899
 H          1.3751025365        2.1937675560       -0.0001808275
 H         -1.1005899434        1.8853689415       -0.0002427044
 H         -2.7641032489       -1.4785725222       -0.0001469616
 H          3.5834803601       -0.5315006034        0.0002581275
          15
        -26.14798763
 C         -0.1397421794       -1.3542897269        0.0000634020
 C          1.2271225526       -1.1953885909       -0.0003059171
 C          1.7802208146        0.0866151161       -0.0000911531
 C          0.9437777346        1.2021089297        0.0002553661
 C         -0.4234520174        1.0368388286        0.0003077300
 C         -0.9845196456       -0.2418573552        0.0003215180
 C         -2.4375541056       -0.4028979434        0.0006713834
 O         -3.2423905100        0.4956339439       -0.0008931028
 O          3.1269439276        0.1970185097       -0.0002598059
 H         -0.5661526692       -2.3468570391       -0.0000719617
 H          1.8940417261       -2.0426899990       -0.0007832692
 H          1.3751034792        2.1945743676        0.0004559900
 H         -1.0853245965        1.8897049881        0.0005086246
 H         -2.7677104377       -1.4618638950        0.0025213672
 H          3.3895640977        1.1261779257        0.0011041912
