  15
 
 C          1.8850000000       -1.0360000000       -0.1120000000
 C          2.9210000000       -1.6310000000        0.6080000000
 C          2.8780000000       -1.6520000000        2.0020000000
 C          1.8000000000       -1.0790000000        2.6760000000
 C          0.7640000000       -0.4840000000        1.9550000000
 C          0.8070000000       -0.4630000000        0.5610000000
 C         -0.2730000000        0.1570000000       -0.1900000000
 O         -1.2540000000        0.6800000000        0.3460000000
 O          3.8890000000       -2.2320000000        2.7060000000
 H          1.9280000000       -1.0250000000       -1.1980000000
 H          3.7590000000       -2.0760000000        0.0780000000
 H          1.7610000000       -1.0920000000        3.7610000000
 H         -0.0720000000       -0.0400000000        2.4900000000
 H         -0.1950000000        0.1490000000       -1.2990000000
 H          4.5610000000       -2.5840000000        2.1010000000
