  21
 
 C         -2.6383750151       -0.7324862435        0.7065591472
 C         -1.8658975227       -0.4711615616       -0.5883475655
 C         -0.3993177355       -0.2921595186       -0.3046841362
 C          0.4096461431       -1.4196936770       -0.2363868141
 C          1.7567479408       -1.3235379604        0.0584624053
 C          2.3153371052       -0.0794225128        0.2896633902
 C          1.5192313323        1.0492805634        0.2237035599
 C          0.1633841129        0.9639864281       -0.0676476920
 C         -0.6574790649        2.2186334449       -0.1339342124
 H         -3.6984968046       -0.8618008002        0.4989580843
 H         -2.5200311198        0.0972734158        1.3996523998
 H         -2.2670843813       -1.6326303104        1.1914039434
 H         -2.2740232975        0.4103899795       -1.0832348754
 H         -2.0013308133       -1.3239346880       -1.2576146321
 H         -0.0288616701       -2.3908481302       -0.4208676229
 H          2.3663469042       -2.2140319364        0.1056957361
 H          3.3667524032        0.0133536586        0.5196469697
 H          1.9587734635        2.0206604781        0.4043432180
 H         -1.0239860223        2.3845014758       -1.1467965924
 H         -1.5177949234        2.1618832764        0.5308418671
 H         -0.0582334267        3.0790575062        0.1537679073
          21
        -25.38395141
 C         -2.6334770125        0.6871423674       -0.7498222361
 C         -1.8773067049        0.4526084280        0.5598487976
 C         -0.4033979547        0.2952205952        0.3018496307
 C          0.3925963283        1.4327110870        0.2551360715
 C          1.7458179076        1.3545761662       -0.0166369553
 C          2.3233475784        0.1190880345       -0.2463056887
 C          1.5403425624       -1.0198383557       -0.2010079393
 C          0.1790608836       -0.9528119025        0.0675697769
 C         -0.6277493157       -2.2175409697        0.1143951942
 H         -3.6985329738        0.8018764855       -0.5598545815
 H         -2.4917994543       -0.1481235139       -1.4316919392
 H         -2.2685795503        1.5875406977       -1.2388822096
 H         -2.2780906905       -0.4307773080        1.0575437336
 H         -2.0380198445        1.3099526390        1.2175587774
 H         -0.0607075851        2.3973539730        0.4376717712
 H          2.3456432968        2.2524090376       -0.0473516775
 H          3.3796319838        0.0409716188       -0.4585063763
 H          1.9949806643       -1.9845656637       -0.3793207753
 H         -0.0110953642       -3.0714520709       -0.1555795948
 H         -1.0202641661       -2.3849763343        1.1175646774
 H         -1.4708296217       -2.1715074243       -0.5724022385
