  21
 
 C          1.2970000000       -2.2570000000       -2.2090000000
 C          1.9530000000       -1.0260000000       -1.6040000000
 C          1.8850000000       -1.0360000000       -0.1120000000
 C          2.9210000000       -1.6310000000        0.6080000000
 C          2.8780000000       -1.6520000000        2.0020000000
 C          1.8000000000       -1.0790000000        2.6760000000
 C          0.7640000000       -0.4840000000        1.9550000000
 C          0.8070000000       -0.4630000000        0.5610000000
 C         -0.3140000000        0.1790000000       -0.1890000000
 H          1.3530000000       -2.2400000000       -3.3030000000
 H          0.2420000000       -2.3030000000       -1.9240000000
 H          1.7820000000       -3.1760000000       -1.8630000000
 H          1.4680000000       -0.1210000000       -1.9900000000
 H          3.0000000000       -0.9680000000       -1.9260000000
 H          3.7660000000       -2.0800000000        0.0930000000
 H          3.6850000000       -2.1140000000        2.5630000000
 H          1.7670000000       -1.0950000000        3.7610000000
 H         -0.0720000000       -0.0400000000        2.4890000000
 H         -0.1030000000        1.2420000000       -0.3510000000
 H         -0.4640000000       -0.3000000000       -1.1640000000
 H         -1.2600000000        0.0900000000        0.3590000000
