 xtb: 6.7.1 (edcfbbe)
          04112512133D

 24 24  0     0  0            999 V2000
   -2.6606   -1.2120   -0.3218 C   0  0  0  0  0  0  0  0  0  0  0  0
   -2.4572    0.1802    0.2648 C   0  0  0  0  0  0  0  0  0  0  0  0
   -1.1483    0.8637   -0.1412 C   0  0  0  0  0  0  0  0  0  0  0  0
    0.1126    0.3221    0.5416 C   0  0  0  0  0  0  0  0  0  0  0  0
    0.6077   -1.0208   -0.0313 C   0  0  0  0  0  0  0  0  0  0  0  0
    2.1280   -0.8958   -0.1160 C   0  0  0  0  0  0  0  0  0  0  0  0
    2.3228    0.5642   -0.5047 C   0  0  0  0  0  0  0  0  0  0  0  0
    1.3084    1.2915    0.3773 C   0  0  0  0  0  0  0  0  0  0  0  0
   -2.5524   -1.1890   -1.4039 H   0  0  0  0  0  0  0  0  0  0  0  0
   -1.9438   -1.9192    0.0830 H   0  0  0  0  0  0  0  0  0  0  0  0
   -3.6604   -1.5708   -0.0872 H   0  0  0  0  0  0  0  0  0  0  0  0
   -3.2825    0.8149   -0.0679 H   0  0  0  0  0  0  0  0  0  0  0  0
   -2.5076    0.1246    1.3547 H   0  0  0  0  0  0  0  0  0  0  0  0
   -1.0285    0.8072   -1.2255 H   0  0  0  0  0  0  0  0  0  0  0  0
   -1.2414    1.9203    0.1241 H   0  0  0  0  0  0  0  0  0  0  0  0
   -0.1093    0.2060    1.6067 H   0  0  0  0  0  0  0  0  0  0  0  0
    0.3070   -1.8673    0.5842 H   0  0  0  0  0  0  0  0  0  0  0  0
    0.2038   -1.1653   -1.0338 H   0  0  0  0  0  0  0  0  0  0  0  0
    2.5774   -1.0818    0.8610 H   0  0  0  0  0  0  0  0  0  0  0  0
    2.5627   -1.5897   -0.8342 H   0  0  0  0  0  0  0  0  0  0  0  0
    3.3411    0.9152   -0.3435 H   0  0  0  0  0  0  0  0  0  0  0  0
    2.0728    0.7012   -1.5578 H   0  0  0  0  0  0  0  0  0  0  0  0
    1.7542    1.4996    1.3508 H   0  0  0  0  0  0  0  0  0  0  0  0
    1.0030    2.2415   -0.0588 H   0  0  0  0  0  0  0  0  0  0  0  0
  1  2  1  0  0  0  0
  2  3  1  0  0  0  0
  3  4  1  0  0  0  0
  4  5  1  0  0  0  0
  5  6  1  0  0  0  0
  6  7  1  0  0  0  0
  4  8  1  0  0  0  0
  7  8  1  0  0  0  0
  1  9  1  0  0  0  0
  1 10  1  0  0  0  0
  1 11  1  0  0  0  0
  2 12  1  0  0  0  0
  2 13  1  0  0  0  0
  3 14  1  0  0  0  0
  3 15  1  0  0  0  0
  4 16  1  0  0  0  0
  5 17  1  0  0  0  0
  5 18  1  0  0  0  0
  6 19  1  0  0  0  0
  6 20  1  0  0  0  0
  7 21  1  0  0  0  0
  7 22  1  0  0  0  0
  8 23  1  0  0  0  0
  8 24  1  0  0  0  0
M  END
