 13

C     -0.536000    -1.023000    -0.505000
C     -0.541000     0.372000    -1.076000
C      0.604000     1.019000    -0.327000
O      0.657000     0.397000     0.964000
C     -0.183000    -0.765000     0.944000
H      0.253000    -1.616000    -0.983000
H     -1.485000    -1.552000    -0.627000
H     -0.415000     0.406000    -2.161000
H     -1.484000     0.873000    -0.823000
H      1.560000     0.833000    -0.828000
H      0.475000     2.099000    -0.211000
H      0.339000    -1.608000     1.405000
H     -1.077000    -0.541000     1.536000
