  19
 
 C          3.6734696363       -0.0127567466       -0.0014621767
 C          2.2807673094        0.6054489561        0.0013651844
 C          1.1855964476       -0.4585205195        0.0040716928
 C         -0.2082952826        0.1617723150        0.0108508593
 C         -1.3076120387       -0.8959795911        0.0105329155
 C         -2.6864323247       -0.3065187864        0.0017410205
 O         -2.9520579661        0.8613621304        0.0016185610
 H          4.4359032200        0.7625038414       -0.0025503617
 H          3.8144020050       -0.6334850845       -0.8837903450
 H          3.8175875744       -0.6341501052        0.8798729973
 H          2.1632154341        1.2398548726       -0.8798149322
 H          2.1670391171        1.2404501391        0.8826208666
 H          1.3052722151       -1.0954417882        0.8842595455
 H          1.2978444563       -1.0919384575       -0.8796109847
 H         -0.3322022794        0.8002227665       -0.8659150802
 H         -0.3263244145        0.7945233067        0.8924968280
 H         -1.2197373259       -1.5479235513       -0.8638290330
 H         -1.2281935578       -1.5400566295        0.8915598031
 H         -3.4888449122       -1.0740496982       -0.0040936064
          19
        -23.01421247
 C          3.2211442876       -0.8871455928        0.0955519648
 C          2.2978683328        0.2754065557       -0.2469668226
 C          0.8674350231        0.0197901539        0.2214475419
 C         -0.0626810687        1.1837185544       -0.1145478462
 C         -1.4941927292        0.9082952339        0.3462042351
 C         -2.1068005183       -0.2410756635       -0.3971083365
 O         -2.7601744199       -1.1203956575        0.0882220000
 H          3.2496868679       -1.0473699622        1.1710555827
 H          4.2328317958       -0.6869079908       -0.2487108389
 H          2.8721920654       -1.8029002136       -0.3767333667
 H          2.3009179282        0.4347986857       -1.3278240727
 H          2.6728854653        1.1879098738        0.2225289728
 H          0.8656260034       -0.1432079084        1.3015604720
 H          0.4889103343       -0.8916300913       -0.2481289573
 H         -0.0560870794        1.3557087735       -1.1937532417
 H          0.3026314823        2.0922122385        0.3686452434
 H         -1.5300920770        0.7094602224        1.4185965574
 H         -2.1174685962        1.7837299884        0.1389853762
 H         -1.9139379703       -0.2098426046       -1.4895596492
