 xtb: 6.7.1 (edcfbbe)
          04112512243D

 23 22  0     0  0            999 V2000
    2.0364    1.4005   -0.5632 C   0  0  0  0  0  0  0  0  0  0  0  0
    1.6190    0.2458    0.3413 C   0  0  0  0  0  0  0  0  0  0  0  0
    0.4115   -0.5549   -0.1688 C   0  0  0  0  0  0  0  0  0  0  0  0
    0.6636   -0.9194   -1.1729 H   0  0  0  0  0  0  0  0  0  0  0  0
    0.2099   -1.7734    0.7329 C   0  0  0  0  0  0  0  0  0  0  0  0
   -0.8633    0.3008   -0.3203 C   0  0  0  0  0  0  0  0  0  0  0  0
   -1.9619   -0.4631   -1.0619 C   0  0  0  0  0  0  0  0  0  0  0  0
   -1.4100    0.8280    1.0050 C   0  0  0  0  0  0  0  0  0  0  0  0
    1.2974    2.1973   -0.5567 H   0  0  0  0  0  0  0  0  0  0  0  0
    2.9812    1.8172   -0.2217 H   0  0  0  0  0  0  0  0  0  0  0  0
    2.1643    1.0555   -1.5871 H   0  0  0  0  0  0  0  0  0  0  0  0
    1.4119    0.6256    1.3433 H   0  0  0  0  0  0  0  0  0  0  0  0
    2.4609   -0.4458    0.4277 H   0  0  0  0  0  0  0  0  0  0  0  0
    1.1019   -2.3961    0.7172 H   0  0  0  0  0  0  0  0  0  0  0  0
    0.0314   -1.4683    1.7607 H   0  0  0  0  0  0  0  0  0  0  0  0
   -0.6270   -2.3780    0.3963 H   0  0  0  0  0  0  0  0  0  0  0  0
   -0.5968    1.1618   -0.9422 H   0  0  0  0  0  0  0  0  0  0  0  0
   -2.3597   -1.2693   -0.4510 H   0  0  0  0  0  0  0  0  0  0  0  0
   -1.5798   -0.8862   -1.9883 H   0  0  0  0  0  0  0  0  0  0  0  0
   -2.7825    0.2081   -1.3057 H   0  0  0  0  0  0  0  0  0  0  0  0
   -2.2612    1.4791    0.8172 H   0  0  0  0  0  0  0  0  0  0  0  0
   -0.6591    1.4022    1.5408 H   0  0  0  0  0  0  0  0  0  0  0  0
   -1.7443    0.0113    1.6393 H   0  0  0  0  0  0  0  0  0  0  0  0
  1  2  1  0  0  0  0
  2  3  1  0  0  0  0
  3  4  1  0  0  0  0
  3  5  1  0  0  0  0
  3  6  1  0  0  0  0
  6  7  1  0  0  0  0
  6  8  1  0  0  0  0
  1  9  1  0  0  0  0
  1 10  1  0  0  0  0
  1 11  1  0  0  0  0
  2 12  1  0  0  0  0
  2 13  1  0  0  0  0
  5 14  1  0  0  0  0
  5 15  1  0  0  0  0
  5 16  1  0  0  0  0
  6 17  1  0  0  0  0
  7 18  1  0  0  0  0
  7 19  1  0  0  0  0
  7 20  1  0  0  0  0
  8 21  1  0  0  0  0
  8 22  1  0  0  0  0
  8 23  1  0  0  0  0
M  END
