  16
 
 C         -2.5919301361       -0.2075331250        0.0213334991
 C         -1.9198229115       -1.4279426961        0.1180316381
 C         -0.5492246836       -1.4386356723        0.1183805103
 C          0.1837398082       -0.2483077749        0.0214762819
 C         -0.4850060562        0.9952949273       -0.0815904041
 C         -1.8940615957        0.9682767104       -0.0756104615
 N          0.1620457597        2.1686692539       -0.1851374102
 N          1.5957975969       -0.3514095516        0.0373689135
 O          2.0948823489       -1.4552031702        0.1475876445
 O          2.2699714951        0.6710519343       -0.0574885580
 H         -3.6713307398       -0.1890744747        0.0233273597
 H         -2.4738204368       -2.3494424505        0.1924298235
 H          0.0041679155       -2.3621313311        0.1932629010
 H         -2.4180897721        1.9099684916       -0.1502867467
 H         -0.3605131736        3.0243306788       -0.2344282769
 H          1.1733738977        2.1688840559       -0.1684240032
          16
        -29.78603661
 C         -2.5838106775       -0.2511163646       -0.0002499314
 C         -1.8875367895       -1.4615866224        0.0001555966
 C         -0.5168790751       -1.4449667645        0.0001360740
 C          0.1920559984       -0.2364469989        0.0000811337
 C         -0.5014457812        0.9979482327        0.0001557726
 C         -1.9095838199        0.9424623197       -0.0002954486
 N          0.1221537261        2.1883713791        0.0001416081
 N          1.6061820082       -0.3123434041       -0.0000769912
 O          2.2599880337        0.7279921554        0.0000853693
 O          2.1267778274       -1.4118211400       -0.0002535618
 H         -3.6633786923       -0.2543188379        0.0002847264
 H         -2.4228732526       -2.3969710674        0.0012308077
 H          0.0547511772       -2.3603336123        0.0007877472
 H         -2.4524491437        1.8763761287       -0.0006096706
 H         -0.4162096787        3.0354382344        0.0001217542
 H          1.1332968969        2.2075158344        0.0001567875
