 xtb: 6.7.1 (edcfbbe)
          04112512423D

 17 16  0     0  0            999 V2000
   -2.4630    0.3710    0.8703 C   0  0  0  0  0  0  0  0  0  0  0  0
   -1.7202    0.6101   -0.4439 C   0  0  0  0  0  0  0  0  0  0  0  0
   -0.3909   -0.1014   -0.4740 C   0  0  0  0  0  0  0  0  0  0  0  0
   -0.0458   -0.8742   -1.3453 O   0  0  0  0  0  0  0  0  0  0  0  0
    0.3629    0.2152    0.5690 O   0  0  0  0  0  0  0  0  0  0  0  0
    1.6725   -0.3653    0.6783 C   0  0  0  0  0  0  0  0  0  0  0  0
    2.7225    0.5515    0.0696 C   0  0  0  0  0  0  0  0  0  0  0  0
   -3.4055    0.9102    0.8607 H   0  0  0  0  0  0  0  0  0  0  0  0
   -2.6699   -0.6881    1.0028 H   0  0  0  0  0  0  0  0  0  0  0  0
   -1.8654    0.7175    1.7084 H   0  0  0  0  0  0  0  0  0  0  0  0
   -1.5241    1.6771   -0.5618 H   0  0  0  0  0  0  0  0  0  0  0  0
   -2.3059    0.2606   -1.2940 H   0  0  0  0  0  0  0  0  0  0  0  0
    1.8336   -0.4939    1.7494 H   0  0  0  0  0  0  0  0  0  0  0  0
    1.6675   -1.3370    0.1754 H   0  0  0  0  0  0  0  0  0  0  0  0
    2.6811    1.5304    0.5393 H   0  0  0  0  0  0  0  0  0  0  0  0
    3.7070    0.1216    0.2225 H   0  0  0  0  0  0  0  0  0  0  0  0
    2.5477    0.6630   -0.9982 H   0  0  0  0  0  0  0  0  0  0  0  0
  1  2  1  0  0  0  0
  2  3  1  0  0  0  0
  3  4  2  0  0  0  0
  3  5  1  0  0  0  0
  5  6  1  0  0  0  0
  6  7  1  0  0  0  0
  1  8  1  0  0  0  0
  1  9  1  0  0  0  0
  1 10  1  0  0  0  0
  2 11  1  0  0  0  0
  2 12  1  0  0  0  0
  6 13  1  0  0  0  0
  6 14  1  0  0  0  0
  7 15  1  0  0  0  0
  7 16  1  0  0  0  0
  7 17  1  0  0  0  0
M  END
