20
 xtb: 6.7.1 (edcfbbe)
C            2.47044861796743        0.83021752018482        0.30384488392581
C            1.53737261438612        0.02033403652081       -0.59417020943839
C            0.39107345329006       -0.66434196442762        0.18106571933996
C           -1.01598206727708       -0.29163562891223       -0.30553164974960
C           -1.31831973815514        1.18507409792779       -0.04567519024053
C           -2.06834153893840       -1.17325805398001        0.36713665195566
H            2.93449026489768        0.19096107873621        1.06354699119272
H            3.27320406088971        1.30508281189549       -0.27064901393333
H            1.91764054560713        1.61873458694512        0.82785173259390
H            1.11804895381987        0.68171244718306       -1.36234630414121
H            2.12189533141159       -0.73250704181960       -1.13511331352252
H            0.50320237508535       -1.75409150128263        0.12915938652655
H            0.45949499557528       -0.40249146978801        1.24724669246640
H           -1.05710574930000       -0.46929025478906       -1.39056445087029
H           -1.32655917448150        1.38569897190313        1.03315175546224
H           -2.29939107764638        1.46283403616827       -0.44663192494157
H           -0.57347275570688        1.84448910843169       -0.50368348518318
H           -3.07835249039862       -0.91717975473706        0.02852052947668
H           -1.89672465278372       -2.23357302462395        0.15167914262080
H           -2.03724575680661       -1.04176308554961        1.45604832837710
