 12

C     -2.146000    -0.194000    -0.121000
C     -0.894000     0.451000     0.442000
O     -0.853000     0.236000     1.847000
N      0.290000     0.804000     2.475000
O      1.097000     1.403000     1.759000
O      0.313000     0.611000     3.691000
O     -2.115000    -1.589000     0.155000
H     -2.204000    -0.062000    -1.206000
H     -3.038000     0.229000     0.350000
H     -0.890000     1.530000     0.261000
H      0.000000     0.000000     0.000000
H     -2.928000    -1.965000    -0.218000
