 xtb: 6.7.1 (edcfbbe)
          04112511513D

 19 19  0     0  0            999 V2000
    1.4653   -2.4425   -0.9637 C   0  0  0  0  0  0  0  0  0  0  0  0
    1.0879   -1.7699    0.2394 O   0  0  0  0  0  0  0  0  0  0  0  0
    0.7240   -0.4587    0.0869 C   0  0  0  0  0  0  0  0  0  0  0  0
    1.6749    0.5631    0.0430 C   0  0  0  0  0  0  0  0  0  0  0  0
    1.2910    1.8919   -0.0389 C   0  0  0  0  0  0  0  0  0  0  0  0
   -0.0504    2.2254   -0.0702 C   0  0  0  0  0  0  0  0  0  0  0  0
   -1.0055    1.2234   -0.0099 C   0  0  0  0  0  0  0  0  0  0  0  0
   -0.6317   -0.1150    0.0625 C   0  0  0  0  0  0  0  0  0  0  0  0
   -1.6433   -1.2194    0.1014 C   0  0  0  0  0  0  0  0  0  0  0  0
   -1.7089   -2.0925   -0.7333 O   0  0  0  0  0  0  0  0  0  0  0  0
   -2.4472   -1.1329    1.1381 O   0  0  0  0  0  0  0  0  0  0  0  0
   -2.6793    1.6418   -0.0671 Cl  0  0  0  0  0  0  0  0  0  0  0  0
    3.3532    0.1559    0.1226 Cl  0  0  0  0  0  0  0  0  0  0  0  0
    2.2551   -1.9006   -1.4875 H   0  0  0  0  0  0  0  0  0  0  0  0
    0.5953   -2.5596   -1.6145 H   0  0  0  0  0  0  0  0  0  0  0  0
    1.8274   -3.4160   -0.6448 H   0  0  0  0  0  0  0  0  0  0  0  0
    2.0445    2.6613   -0.0738 H   0  0  0  0  0  0  0  0  0  0  0  0
   -0.3570    3.2558   -0.1356 H   0  0  0  0  0  0  0  0  0  0  0  0
   -3.1041   -1.8578    1.1758 H   0  0  0  0  0  0  0  0  0  0  0  0
  1  2  1  0  0  0  0
  2  3  1  0  0  0  0
  3  4  4  0  0  0  0
  4  5  4  0  0  0  0
  5  6  4  0  0  0  0
  6  7  4  0  0  0  0
  3  8  4  0  0  0  0
  7  8  4  0  0  0  0
  8  9  1  0  0  0  0
  9 10  2  0  0  0  0
  9 11  4  0  0  0  0
  7 12  1  0  0  0  0
  4 13  1  0  0  0  0
  1 14  1  0  0  0  0
  1 15  1  0  0  0  0
  1 16  1  0  0  0  0
  5 17  1  0  0  0  0
  6 18  1  0  0  0  0
 11 19  1  0  0  0  0
M  END
