  15
 
 C          2.0632825260        0.0098109393       -0.1258231998
 C          0.7656184959        0.7050583903        0.2653987698
 C         -0.4581447558       -0.0018558023       -0.3210835200
 H         -0.3359725608       -0.0768126054       -1.4159954302
 C         -1.7431896712        0.7691067724       -0.0165014757
 O         -0.5040833413       -1.3038670273        0.2330482592
 H          2.9135788054        0.5023460349        0.3393879097
 H          2.1976982572        0.0306725415       -1.2053067827
 H          2.0351321415       -1.0260501967        0.1997836276
 H          0.7743392459        1.7389492131       -0.0842284984
 H          0.6674105391        0.7072038443        1.3519420695
 H         -2.6048558655        0.2660583870       -0.4535613895
 H         -1.8874593772        0.8334076454        1.0597048024
 H         -1.6873469912        1.7742531862       -0.4248677050
 H         -1.3140423630       -1.7345661288       -0.0583512582
          15
        -17.72781752
 C          2.0633036789        0.0322625239       -0.1207521240
 C          0.7581528730        0.7027440236        0.2902933340
 C         -0.4603077877        0.0031914501       -0.3274934126
 H         -0.3331078500       -0.0552375887       -1.4139910665
 C         -1.7485690566        0.7623726870       -0.0038632521
 O         -0.5472017360       -1.3434706235        0.0873008072
 H          2.0301926634       -1.0276830707        0.1197100575
 H          2.9063796383        0.4833454078        0.3970158637
 H          2.2195681535        0.1331542896       -1.1921449194
 H          0.7612650013        1.7479228728       -0.0231648706
 H          0.6616317155        0.6795794570        1.3801116465
 H         -1.7225600564        1.7570660083       -0.4398309993
 H         -2.6048161508        0.2255345584       -0.4046240271
 H         -1.8710326485        0.8576590562        1.0743894064
 H         -0.6612672801       -1.3571804580        1.0450479010
