 15

C      0.978000    -0.033000    -0.236000
C      1.410000     0.679000    -1.511000
C      0.639000     0.188000    -2.739000
H      0.808000    -0.886000    -2.880000
C      1.061000     0.942000    -3.993000
O     -0.755000     0.390000    -2.527000
H      1.542000     0.335000     0.627000
H      1.130000    -1.114000    -0.311000
H     -0.085000     0.145000    -0.046000
H      2.485000     0.524000    -1.659000
H      1.246000     1.755000    -1.374000
H      0.507000     0.587000    -4.869000
H      0.895000     2.018000    -3.884000
H      2.123000     0.773000    -4.203000
H     -1.205000     0.067000    -3.323000
