14
 xtb: 6.7.1 (edcfbbe)
C           -1.05311609985093       -0.12085798854931        0.75926044932369
C            0.25542769015473        0.54663934550387        0.36135498955357
C            1.14768770936206       -0.32558967894750       -0.50613241131388
O            1.47167460591676       -1.50579817180069        0.24207055751534
O            0.00142784407436        1.72567884164099       -0.42502598558968
O           -1.82314933098088       -0.54787314992638       -0.37210486245718
H           -1.63298070618590        0.58174756862830        1.37674284386531
H           -0.84971852174799       -1.01212166127706        1.35977421121310
H            0.79483171717077        0.80879162544256        1.28437941664917
H            2.05536071374980        0.23724820501609       -0.76093166534258
H            0.62324236993715       -0.58355101617002       -1.43639132717103
H            2.04687744193961       -2.04616488520548       -0.31289232094431
H           -0.47376618079589        2.35194593997508        0.13654484996761
H           -1.94857801868101        0.22927843777843       -0.93392997466592
