 xtb: 6.7.1 (edcfbbe)
          04112512273D

 13 12  0     0  0            999 V2000
   -2.3894   -0.0952    0.0000 C   0  0  0  0  0  0  0  0  0  0  0  0
   -0.9114   -0.4636   -0.0000 C   0  0  0  0  0  0  0  0  0  0  0  0
   -0.0227    0.7774   -0.0000 C   0  0  0  0  0  0  0  0  0  0  0  0
    1.4333    0.4647    0.0000 C   0  0  0  0  0  0  0  0  0  0  0  0
    1.9229   -0.6393   -0.0000 O   0  0  0  0  0  0  0  0  0  0  0  0
   -2.6377    0.4895   -0.8825 H   0  0  0  0  0  0  0  0  0  0  0  0
   -3.0022   -0.9926    0.0000 H   0  0  0  0  0  0  0  0  0  0  0  0
   -2.6377    0.4895    0.8826 H   0  0  0  0  0  0  0  0  0  0  0  0
   -0.6774   -1.0678   -0.8787 H   0  0  0  0  0  0  0  0  0  0  0  0
   -0.6774   -1.0678    0.8787 H   0  0  0  0  0  0  0  0  0  0  0  0
   -0.2250    1.3996   -0.8761 H   0  0  0  0  0  0  0  0  0  0  0  0
   -0.2249    1.3996    0.8761 H   0  0  0  0  0  0  0  0  0  0  0  0
    2.0861    1.3581   -0.0002 H   0  0  0  0  0  0  0  0  0  0  0  0
  1  2  1  0  0  0  0
  2  3  1  0  0  0  0
  3  4  1  0  0  0  0
  4  5  2  0  0  0  0
  1  6  1  0  0  0  0
  1  7  1  0  0  0  0
  1  8  1  0  0  0  0
  2  9  1  0  0  0  0
  2 10  1  0  0  0  0
  3 11  1  0  0  0  0
  3 12  1  0  0  0  0
  4 13  1  0  0  0  0
M  END
