17
 xtb: 6.7.1 (edcfbbe)
C           -2.42728010736817        1.11997423471832       -0.14730208000977
C           -1.80847895428550       -0.11540901669111        0.50315842063187
C           -0.43031436168038       -0.46822792428423        0.01581409995585
O           -0.03322090617419       -1.61068303008283       -0.15553231496196
O            0.33407102732267        0.61940449097387       -0.18865494349087
C            1.72242636307739        0.39340071154426       -0.59428784027962
C            2.59195949038726        0.08597148377323        0.60304183703089
H           -3.44917010175477        1.25361136056174        0.21784153674310
H           -1.86278186320081        2.02510663040723        0.08744084756178
H           -2.46703784329277        1.01035863637828       -1.23514612824031
H           -2.43349804640119       -0.99902550607095        0.35410298425022
H           -1.71923844984991        0.03470863345024        1.58775083296669
H            1.74462508010875       -0.40714153158826       -1.33781118349986
H            2.01233922234631        1.33316622454881       -1.06800666627599
H            2.54589514379328        0.89764872839007        1.33477922359316
H            2.29105426580211       -0.84728933881224        1.08609787159481
H            3.62998155985508       -0.01816391446177        0.27156049710812
