  15
 
 C          0.7000804954       -1.4579581777       -0.0473589155
 C          0.4388910492       -0.0040894364        0.3552635919
 C          1.6302891699        0.8792612540       -0.0020625678
 O         -0.6858063376        0.5481645127       -0.3093040789
 C         -1.9298074929        0.0745859906        0.1304837053
 H         -0.1109409626       -2.1071937611        0.2735331395
 H          0.7965775837       -1.5258284351       -1.1282770921
 H          1.6203090308       -1.8064795609        0.4132547936
 H          0.2650085571        0.0390552418        1.4454792971
 H          1.4204507539        1.9098643592        0.2698307236
 H          1.8074009630        0.8352750409       -1.0729907048
 H          2.5198923932        0.5442961041        0.5236515785
 H         -2.6819496360        0.6873256386       -0.3638487209
 H         -2.0336355566        0.1800998806        1.2184649495
 H         -2.0935430668       -0.9754105103       -0.1383473199
          15
        -17.72192577
 C          0.7158052607       -1.4482591476       -0.1165131529
 C          0.4322955910       -0.0115543387        0.3302262413
 C          1.6063906444        0.9023562072       -0.0070835287
 O         -0.7051210068        0.5415302877       -0.3115531062
 C         -1.9384811125        0.0287543935        0.1143463831
 H         -0.0808963879       -2.1208913817        0.1919170229
 H          0.8047776021       -1.4834755623       -1.1996764984
 H          1.6459074186       -1.7930265464        0.3267818793
 H          0.2637418397       -0.0037137894        1.4221675885
 H          1.3799059317        1.9209267069        0.2951461833
 H          1.7789719891        0.8920678048       -1.0796282083
 H          2.5042721526        0.5681516487        0.5048400708
 H         -2.0359333015        0.0821405934        1.2066217586
 H         -2.0882948493       -1.0099483120       -0.2019194041
 H         -2.7036436648        0.6519961174       -0.3456821646
