  15
 
 C          1.0770000000        0.0500000000        0.1960000000
 C          1.3530000000        0.9190000000        1.4130000000
 C          2.8430000000        1.0380000000        1.6980000000
 O          0.8120000000        2.2180000000        1.1940000000
 C         -0.5870000000        2.2450000000        1.4350000000
 H          0.0030000000       -0.0290000000        0.0000000000
 H          1.5640000000        0.4690000000       -0.6910000000
 H          1.4830000000       -0.9590000000        0.3310000000
 H          0.8470000000        0.4960000000        2.2870000000
 H          3.0310000000        1.6650000000        2.5750000000
 H          3.3610000000        1.4750000000        0.8370000000
 H          3.2910000000        0.0530000000        1.8680000000
 H         -0.9650000000        3.2540000000        1.2580000000
 H         -0.7810000000        1.9440000000        2.4660000000
 H         -1.0740000000        1.5470000000        0.7530000000
