 xtb: 6.7.1 (edcfbbe)
          04112512083D

 17 16  0     0  0            999 V2000
   -3.3410   -0.0145    0.0131 C   0  0  0  0  0  0  0  0  0  0  0  0
   -2.0029    0.6377    0.3368 C   0  0  0  0  0  0  0  0  0  0  0  0
   -0.8453   -0.2097   -0.1704 C   0  0  0  0  0  0  0  0  0  0  0  0
    0.3811    0.4699    0.1332 O   0  0  0  0  0  0  0  0  0  0  0  0
    1.5199   -0.1797   -0.0743 C   0  0  0  0  0  0  0  0  0  0  0  0
    1.5654   -1.3147   -0.5051 O   0  0  0  0  0  0  0  0  0  0  0  0
    2.7118    0.6540    0.2861 C   0  0  0  0  0  0  0  0  0  0  0  0
   -4.1554    0.6011    0.3831 H   0  0  0  0  0  0  0  0  0  0  0  0
   -3.4570   -0.1339   -1.0611 H   0  0  0  0  0  0  0  0  0  0  0  0
   -3.4096   -0.9954    0.4767 H   0  0  0  0  0  0  0  0  0  0  0  0
   -1.8975    0.7658    1.4147 H   0  0  0  0  0  0  0  0  0  0  0  0
   -1.9421    1.6227   -0.1273 H   0  0  0  0  0  0  0  0  0  0  0  0
   -0.8274   -1.1968    0.3041 H   0  0  0  0  0  0  0  0  0  0  0  0
   -0.9025   -0.3565   -1.2544 H   0  0  0  0  0  0  0  0  0  0  0  0
    3.3485    0.7569   -0.5888 H   0  0  0  0  0  0  0  0  0  0  0  0
    3.2836    0.1401    1.0545 H   0  0  0  0  0  0  0  0  0  0  0  0
    2.3887    1.6270    0.6390 H   0  0  0  0  0  0  0  0  0  0  0  0
  1  2  1  0  0  0  0
  2  3  1  0  0  0  0
  3  4  1  0  0  0  0
  4  5  1  0  0  0  0
  5  6  2  0  0  0  0
  5  7  1  0  0  0  0
  1  8  1  0  0  0  0
  1  9  1  0  0  0  0
  1 10  1  0  0  0  0
  2 11  1  0  0  0  0
  2 12  1  0  0  0  0
  3 13  1  0  0  0  0
  3 14  1  0  0  0  0
  7 15  1  0  0  0  0
  7 16  1  0  0  0  0
  7 17  1  0  0  0  0
M  END
