17
 xtb: 6.7.1 (edcfbbe)
C           -2.25020912927352        1.07664992404150        0.55346212699990
C           -2.10436596488721       -0.29157457357006       -0.10536204607434
C           -0.81540379356151       -0.40461822129692       -0.92310041106725
C            0.41140879875413       -0.31967573327167       -0.05888120634142
O            0.54398290371739       -0.87755397498719        1.01819526402373
O            1.38068714371944        0.43318614214189       -0.61613350717365
C            2.61798976457021        0.52840306589334        0.13711332584898
H           -2.25090258318175        1.87336809037779       -0.19833243038836
H           -3.18466147898993        1.14498519549945        1.11869409521679
H           -1.42575282826972        1.27272889952843        1.24884444712136
H           -2.94928401196422       -0.47517907567350       -0.77696681043599
H           -2.12223178187676       -1.08160330514180        0.65287635080756
H           -0.77168810835685        0.36448891650646       -1.69869238040384
H           -0.76799845919668       -1.38038756559435       -1.42427865029996
H            3.27399695166234        1.15613566843959       -0.46430331924264
H            3.05577567576772       -0.46326026946805        0.27130466076927
H            2.43174854279162        0.99234646256284        1.10837566231208
