23
CONF5
C -0.2837609213 2.4276019132 0.0916213746
N -0.1126470859 1.1367814615 -0.5772217166
C -1.3354690543 0.4543705643 -0.9445191369
C -2.0572312698 -0.2148699178 0.2143562567
F -3.1851967922 -0.8336074750 -0.2191587297
F -1.3052536577 -1.1535749530 0.8387760514
F -2.4369760196 0.6693657650 1.1711510182
C 1.0547826742 0.4097398122 -0.3276977341
C 1.2582620880 -0.8818202888 -0.8574718999
C 2.4570026082 -1.5520476284 -0.6560525407
C 3.4937756272 -0.9772413508 0.0783553294
C 3.2987597564 0.2915069951 0.6136733664
C 2.1033656423 0.9786976920 0.4230389880
H 0.5135405066 3.1170723591 -0.2030496059
H -0.2865959337 2.3470922039 1.1875779471
H -1.2328755599 2.8626297896 -0.2253562080
H -2.0392542192 1.1738540206 -1.3733527619
H -1.1637190182 -0.3117589449 -1.7035688233
H 0.4839245248 -1.3775539069 -1.4288711591
H 2.5771925015 -2.5441182527 -1.0815071180
H 4.4259579608 -1.5098248893 0.2332289135
H 4.0832570091 0.7628095369 1.1986472369
H 1.9949171663 1.9602654699 0.8657089918
23
CONF4
C -0.3791154382 2.3883221625 -0.0513468233
N -0.1293654318 1.0741003512 -0.6469719851
C -1.3116213062 0.3059201490 -0.9785542397
C -2.0193798619 -0.3118800288 0.2174752719
F -2.5020065918 0.6216991852 1.0769641950
F -3.0789816550 -1.0585226300 -0.1864474828
F -1.2159406216 -1.1231797311 0.9480229077
C 1.0649949720 0.4198934514 -0.3263227531
C 1.3442540760 -0.8880044499 -0.7754684800
C 2.5664726503 -1.4875288585 -0.5034728372
C 3.5538158817 -0.8227319513 0.2229759927
C 3.2850896684 0.4642621539 0.6764292449
C 2.0645084495 1.0806703869 0.4156244435
H -0.4114199492 2.3632892985 1.0469018045
H -1.3366299983 2.7630704410 -0.4170427857
H 0.3950386591 3.0975828851 -0.3593366834
H -2.0419854307 0.9553056864 -1.4703769995
H -1.0885492306 -0.5038361790 -1.6756575817
H 0.6122426034 -1.4533415152 -1.3385552475
H 2.7445437286 -2.4956568791 -0.8664084732
H 4.5047567574 -1.3001755238 0.4338631156
H 4.0299292174 1.0060748009 1.2521558053
H 1.8982652876 2.0794831406 0.7975043982
23
CONF1
C -0.4861182510 2.3303025175 -0.1878144257
N -0.1433707085 1.0265148787 -0.7586724305
C -1.2683819008 0.2156998452 -1.1766832780
C -2.0317606961 -0.4390285201 -0.0358612477
F -2.5907692302 0.4679255333 0.8057817644
F -3.0438603680 -1.2070783360 -0.5154704359
F -1.2530681410 -1.2412619196 0.7310203924
C 1.0474690965 0.4172904759 -0.3497093869
C 1.4175888885 -0.8691567909 -0.7955754932
C 2.6390978317 -1.4220242687 -0.4365769223
C 3.5357786818 -0.7300162646 0.3775711487
C 3.1758789283 0.5351437296 0.8294809617
C 1.9540601721 1.1048606792 0.4815794467
H -1.4181720383 2.6749329005 -0.6390249532
H 0.2904303491 3.0631928706 -0.4266258211
H -0.6154635974 2.3036055012 0.9031239081
H -1.9878293309 0.8417104664 -1.7129174917
H -0.9675811269 -0.5792581401 -1.8620876193
H 0.7570758758 -1.4521049465 -1.4256225621
H 2.8892515988 -2.4141405931 -0.8011982423
H 4.4873574797 -1.1707247422 0.6553246898
H 3.8481245420 1.0953065342 1.4731385346
H 1.7133103811 2.0874306375 0.8660305646
23
CONF3
C -0.2985469362 2.0731554348 -1.1702234788
N -0.1123988974 0.6263782331 -1.0488701041
C -1.3230276577 -0.1497576985 -0.8850833257
C -1.9427984943 -0.0727681986 0.5023189639
F -3.0565796558 -0.8467205328 0.5694505508
F -1.1064911661 -0.4919744750 1.4829802414
F -2.3189908062 1.1885792758 0.8342808763
C 1.1035952660 0.1517319339 -0.5491399725
C 2.1893163096 1.0316054181 -0.3626912779
C 3.4267529365 0.5580486136 0.0627981058
C 3.6300142517 -0.7924447174 0.3270071694
C 2.5580770074 -1.6677404923 0.1571761914
C 1.3168859749 -1.2147252327 -0.2689761556
H -0.2081639714 2.5977115127 -0.2088601596
H -1.2921812875 2.2664630033 -1.5779222969
H 0.4327338152 2.4961840159 -1.8658268128
H -2.0842005568 0.2097656545 -1.5840620616
H -1.1600032141 -1.2063833207 -1.1078714367
H 2.0780921307 2.0920112031 -0.5482120677
H 4.2391895271 1.2671536715 0.1928253682
H 4.5952889911 -1.1551153227 0.6634255562
H 2.6829475961 -2.7267476041 0.3634973674
H 0.5173762318 -1.9376800934 -0.3731882305
23
CONF2
C -0.4598251344 1.1879776550 -2.0143498508
N -0.1918710232 0.3605253344 -0.8389791371
C -1.1723975263 -0.6760892515 -0.5808331420
C -2.1717970632 -0.2809663838 0.4892763066
F -1.5914992100 -0.0333364261 1.6896453249
F -2.8689339971 0.8367487652 0.1627409558
F -3.0796694749 -1.2701185841 0.6843441178
C 1.1280775263 0.1748511966 -0.4293665644
C 2.1872067692 0.8301490591 -1.0888932988
C 3.5000868830 0.6699936631 -0.6571053709
C 3.8078912800 -0.1438304870 0.4291812811
C 2.7657289877 -0.7954230303 1.0864005219
C 1.4475741448 -0.6399386166 0.6768307096
H -1.5388547248 1.2930495873 -2.1352765082
H -0.0470965100 0.7500491247 -2.9361851802
H -0.0445116022 2.1910372701 -1.8828046129
H -1.7516449258 -0.8934305644 -1.4853195936
H -0.7086099881 -1.6140397028 -0.2616506286
H 1.9953765803 1.4619840413 -1.9467451270
H 4.2917268475 1.1880125114 -1.1906595072
H 4.8340805811 -0.2661511939 0.7588026474
H 2.9748379233 -1.4296531954 1.9429396799
H 0.6693470099 -1.1414153275 1.2392713097
