  15
 
 C         -1.1170000000        1.4380000000       -0.1710000000
 C          0.0310000000        1.3980000000       -1.1790000000
 C          1.1320000000        0.5660000000       -0.5320000000
 S          0.2810000000       -0.7350000000        0.3500000000
 C         -1.3470000000       -0.0050000000        0.2650000000
 O          0.7260000000       -0.7270000000        1.7280000000
 O          0.2940000000       -1.9350000000       -0.4610000000
 H         -2.0230000000        1.8750000000       -0.6010000000
 H         -0.8250000000        2.0470000000        0.6930000000
 H         -0.3070000000        0.9160000000       -2.1040000000
 H          0.3850000000        2.4010000000       -1.4330000000
 H          1.8150000000        0.1310000000       -1.2650000000
 H          1.6920000000        1.1560000000        0.2000000000
 H         -1.9210000000       -0.5540000000       -0.4880000000
 H         -1.8380000000       -0.0760000000        1.2370000000
