17
 xtb: 6.7.1 (edcfbbe)
C           -2.49511403189740        0.29933317800155        0.98478843009893
C           -1.78233965714249        0.60283135126945       -0.34130965869057
C           -0.53375627730497       -0.22368888205022       -0.44740636332395
O           -0.49281114434564       -1.36849413447071       -0.87274767788236
O            0.54441336727021        0.42132777592667        0.03246766836731
C            1.80086115272957       -0.33202760941960        0.05277729559436
C            2.85438578110015        0.58063325888426        0.62488937562536
H           -3.42005039614920        0.87833617374233        1.04812955768193
H           -2.74883495473669       -0.76226608579698        1.05655083146046
H           -1.86430183402035        0.56514368285484        1.83795754135483
H           -1.53064840775111        1.66451187213388       -0.40110584074696
H           -2.42839057077594        0.34126596450741       -1.18325575087821
H            1.65340314535292       -1.22623233966312        0.66575161237665
H            2.03432333019104       -0.63769791183700       -0.97134580296404
H            3.80994338305625        0.04872782099177        0.65417689963780
H            2.97810489799428        1.47429615851168        0.00651218790982
H            2.59994320656743        0.88531666722488        1.64410143967043
