  20
 
 C          0.6710000000       -0.6450000000        0.5770000000
 C          0.0260000000       -1.0250000000        1.9000000000
 C          0.9420000000       -1.9260000000        2.7290000000
 C          0.2900000000       -2.3070000000        4.0610000000
 C          1.2090000000       -3.2090000000        4.8900000000
 C          0.6050000000       -3.6180000000        6.2290000000
 Cl         1.6980000000       -4.6640000000        7.1640000000
 H          0.0090000000        0.0000000000       -0.0110000000
 H          0.8820000000       -1.5420000000       -0.0140000000
 H          1.6140000000       -0.1140000000        0.7380000000
 H         -0.2070000000       -0.1130000000        2.4620000000
 H         -0.9230000000       -1.5370000000        1.7040000000
 H          1.8910000000       -1.4110000000        2.9190000000
 H          1.1750000000       -2.8350000000        2.1610000000
 H         -0.6570000000       -2.8250000000        3.8700000000
 H          0.0530000000       -1.3930000000        4.6190000000
 H          2.1730000000       -2.7110000000        5.0510000000
 H          1.4190000000       -4.1220000000        4.3180000000
 H          0.3720000000       -2.7420000000        6.8410000000
 H         -0.3200000000       -4.1790000000        6.0680000000
