 xtb: 6.7.1 (edcfbbe)
          04112511093D

 14 13  0     0  0            999 V2000
   -2.2950   -0.9609    0.1101 C   0  0  0  0  0  0  0  0  0  0  0  0
   -2.4561    0.5478    0.2573 C   0  0  0  0  0  0  0  0  0  0  0  0
   -1.2743    1.3557   -0.2830 C   0  0  0  0  0  0  0  0  0  0  0  0
    0.0186    1.1791    0.4963 C   0  0  0  0  0  0  0  0  0  0  0  0
    1.0914   -0.3715   -0.0993 Br  0  0  0  0  0  0  0  0  0  0  0  0
   -1.5022   -1.3414    0.7485 H   0  0  0  0  0  0  0  0  0  0  0  0
   -3.2181   -1.4626    0.3897 H   0  0  0  0  0  0  0  0  0  0  0  0
   -2.0607   -1.2233   -0.9193 H   0  0  0  0  0  0  0  0  0  0  0  0
   -2.6083    0.7961    1.3102 H   0  0  0  0  0  0  0  0  0  0  0  0
   -3.3486    0.8610   -0.2877 H   0  0  0  0  0  0  0  0  0  0  0  0
   -1.1099    1.1102   -1.3343 H   0  0  0  0  0  0  0  0  0  0  0  0
   -1.5336    2.4161   -0.2292 H   0  0  0  0  0  0  0  0  0  0  0  0
   -0.1636    1.0180    1.5572 H   0  0  0  0  0  0  0  0  0  0  0  0
    0.6843    2.0290    0.3592 H   0  0  0  0  0  0  0  0  0  0  0  0
  1  2  1  0  0  0  0
  2  3  1  0  0  0  0
  3  4  1  0  0  0  0
  4  5  1  0  0  0  0
  1  6  1  0  0  0  0
  1  7  1  0  0  0  0
  1  8  1  0  0  0  0
  2  9  1  0  0  0  0
  2 10  1  0  0  0  0
  3 11  1  0  0  0  0
  3 12  1  0  0  0  0
  4 13  1  0  0  0  0
  4 14  1  0  0  0  0
M  END
