 xtb: 6.7.1 (edcfbbe)
          04112512143D

 21 20  0     0  0            999 V2000
    2.2080   -1.1551    0.5322 C   0  0  0  0  0  0  0  0  0  0  0  0
    1.5213   -0.2500   -0.4846 C   0  0  0  0  0  0  0  0  0  0  0  0
    0.3000    0.5019    0.0807 C   0  0  0  0  0  0  0  0  0  0  0  0
    0.3871    0.5675    1.1712 H   0  0  0  0  0  0  0  0  0  0  0  0
   -1.0514   -0.1497   -0.2773 C   0  0  0  0  0  0  0  0  0  0  0  0
   -1.1371   -1.6081    0.1633 C   0  0  0  0  0  0  0  0  0  0  0  0
   -2.1916    0.6478    0.3569 C   0  0  0  0  0  0  0  0  0  0  0  0
    0.3164    1.8575   -0.3451 O   0  0  0  0  0  0  0  0  0  0  0  0
    1.5369   -1.9286    0.8924 H   0  0  0  0  0  0  0  0  0  0  0  0
    2.5480   -0.5718    1.3847 H   0  0  0  0  0  0  0  0  0  0  0  0
    3.0725   -1.6337    0.0781 H   0  0  0  0  0  0  0  0  0  0  0  0
    2.2426    0.5037   -0.8101 H   0  0  0  0  0  0  0  0  0  0  0  0
    1.2264   -0.8292   -1.3620 H   0  0  0  0  0  0  0  0  0  0  0  0
   -1.1597   -0.1061   -1.3686 H   0  0  0  0  0  0  0  0  0  0  0  0
   -0.9590   -1.6903    1.2330 H   0  0  0  0  0  0  0  0  0  0  0  0
   -2.1320   -1.9935   -0.0476 H   0  0  0  0  0  0  0  0  0  0  0  0
   -0.4167   -2.2270   -0.3628 H   0  0  0  0  0  0  0  0  0  0  0  0
   -2.0904    1.7059    0.1285 H   0  0  0  0  0  0  0  0  0  0  0  0
   -2.1720    0.5306    1.4382 H   0  0  0  0  0  0  0  0  0  0  0  0
   -3.1524    0.2988   -0.0128 H   0  0  0  0  0  0  0  0  0  0  0  0
    0.2273    1.8779   -1.3081 H   0  0  0  0  0  0  0  0  0  0  0  0
  1  2  1  0  0  0  0
  2  3  1  0  0  0  0
  3  4  1  0  0  0  0
  3  5  1  0  0  0  0
  5  6  1  0  0  0  0
  5  7  1  0  0  0  0
  3  8  1  0  0  0  0
  1  9  1  0  0  0  0
  1 10  1  0  0  0  0
  1 11  1  0  0  0  0
  2 12  1  0  0  0  0
  2 13  1  0  0  0  0
  5 14  1  0  0  0  0
  6 15  1  0  0  0  0
  6 16  1  0  0  0  0
  6 17  1  0  0  0  0
  7 18  1  0  0  0  0
  7 19  1  0  0  0  0
  7 20  1  0  0  0  0
  8 21  1  0  0  0  0
M  END
