  12
 
 C         -2.5059005081        0.0700256102        0.0088998531
 C         -1.0944367084       -0.5038980367       -0.0412382439
 C         -0.0539957210        0.5992577295        0.0601253656
 S          1.6538209155       -0.0432770417       -0.0501815763
 H         -3.2402417068       -0.7282971174       -0.0627789161
 H         -2.6682356929        0.6047293697        0.9423886072
 H         -2.6666515414        0.7613459370       -0.8152411758
 H         -0.9495649090       -1.0486883084       -0.9762733964
 H         -0.9575400548       -1.2101834190        0.7818874513
 H         -0.1408573029        1.2954042944       -0.7735955338
 H         -0.1462186587        1.1522679078        0.9952364826
 H          1.5811867388       -0.8247250617        1.0249753631
          12
        -13.74317668
 C         -2.5032844746        0.0761962245        0.0083054170
 C         -1.0951244766       -0.5066160205        0.0278084069
 C         -0.0485964705        0.5918568046       -0.0616027096
 S          1.6546732280       -0.0603464992        0.0442247706
 H         -2.6517710024        0.7455007160        0.8526947568
 H         -2.6725694221        0.6372849587       -0.9083797255
 H         -3.2412184630       -0.7199217043        0.0659152238
 H         -0.9719565994       -1.1948727297       -0.8126287770
 H         -0.9415008230       -1.0733077737        0.9484829048
 H         -0.1368579728        1.1549506709       -0.9913230369
 H         -0.1332061190        1.2807127653        0.7787055544
 H          1.5768990650       -0.8346242580       -1.0364524524
