  12
 
 C          0.1580000000       -0.4970000000        0.9620000000
 C          1.6400000000       -0.5220000000        1.3060000000
 C          1.8810000000       -1.2100000000        2.6450000000
 S          3.6530000000       -1.2300000000        3.0390000000
 H         -0.0140000000       -0.0030000000        0.0010000000
 H         -0.2330000000       -1.5180000000        0.8940000000
 H         -0.4140000000        0.0350000000        1.7290000000
 H          2.0110000000        0.5090000000        1.3340000000
 H          2.1780000000       -1.0440000000        0.5060000000
 H          1.3530000000       -0.6870000000        3.4490000000
 H          1.5200000000       -2.2430000000        2.6190000000
 H          4.0310000000       -1.9270000000        1.9600000000
