 xtb: 6.7.1 (edcfbbe)
          04112511063D

 14 13  0     0  0            999 V2000
   -2.8977   -0.5954   -0.5861 C   0  0  0  0  0  0  0  0  0  0  0  0
   -2.1166   -0.1606    0.6492 C   0  0  0  0  0  0  0  0  0  0  0  0
   -1.3285    1.1332    0.4423 C   0  0  0  0  0  0  0  0  0  0  0  0
   -0.2035    1.0195   -0.5676 C   0  0  0  0  0  0  0  0  0  0  0  0
    1.1946   -0.2465    0.0220 Br  0  0  0  0  0  0  0  0  0  0  0  0
   -3.5456    0.2073   -0.9311 H   0  0  0  0  0  0  0  0  0  0  0  0
   -2.2322   -0.8779   -1.3982 H   0  0  0  0  0  0  0  0  0  0  0  0
   -3.5156   -1.4575   -0.3494 H   0  0  0  0  0  0  0  0  0  0  0  0
   -1.4315   -0.9576    0.9475 H   0  0  0  0  0  0  0  0  0  0  0  0
   -2.8147   -0.0032    1.4733 H   0  0  0  0  0  0  0  0  0  0  0  0
   -2.0030    1.9144    0.0825 H   0  0  0  0  0  0  0  0  0  0  0  0
   -0.9173    1.4587    1.4005 H   0  0  0  0  0  0  0  0  0  0  0  0
    0.3120    1.9686   -0.7009 H   0  0  0  0  0  0  0  0  0  0  0  0
   -0.5459    0.6445   -1.5291 H   0  0  0  0  0  0  0  0  0  0  0  0
  1  2  1  0  0  0  0
  2  3  1  0  0  0  0
  3  4  1  0  0  0  0
  4  5  1  0  0  0  0
  1  6  1  0  0  0  0
  1  7  1  0  0  0  0
  1  8  1  0  0  0  0
  2  9  1  0  0  0  0
  2 10  1  0  0  0  0
  3 11  1  0  0  0  0
  3 12  1  0  0  0  0
  4 13  1  0  0  0  0
  4 14  1  0  0  0  0
M  END
