 17

C      2.669000     0.936000     4.556000
C      2.885000    -0.267000     3.651000
C      1.652000    -0.623000     2.900000
C      1.388000    -0.068000     1.652000
C      0.227000    -0.420000     0.973000
C     -0.632000    -1.322000     1.580000
N     -0.409000    -1.882000     2.791000
C      0.730000    -1.516000     3.421000
H      3.582000     1.191000     5.104000
H      1.883000     0.723000     5.287000
H      2.366000     1.818000     3.980000
H      3.215000    -1.125000     4.248000
H      3.700000    -0.058000     2.946000
H      2.081000     0.637000     1.202000
H     -0.000000    -0.000000    -0.000000
H     -1.551000    -1.629000     1.092000
H      0.882000    -1.981000     4.390000
