 xtb: 6.7.1 (edcfbbe)
          04112510563D

 24 24  0     0  0            999 V2000
    2.3647    1.6754   -0.1883 C   0  0  0  0  0  0  0  0  0  0  0  0
    2.2238    0.5628    0.8467 C   0  0  0  0  0  0  0  0  0  0  0  0
    1.3795   -0.6293    0.3708 C   0  0  0  0  0  0  0  0  0  0  0  0
    1.4325   -1.3882    1.1643 H   0  0  0  0  0  0  0  0  0  0  0  0
    2.0002   -1.2358   -0.8948 C   0  0  0  0  0  0  0  0  0  0  0  0
   -0.0924   -0.3178    0.1737 C   0  0  0  0  0  0  0  0  0  0  0  0
   -0.6953    0.8361    0.6627 C   0  0  0  0  0  0  0  0  0  0  0  0
   -2.0474    1.0735    0.4778 C   0  0  0  0  0  0  0  0  0  0  0  0
   -2.8357    0.1573   -0.1936 C   0  0  0  0  0  0  0  0  0  0  0  0
   -2.2565   -1.0068   -0.6678 C   0  0  0  0  0  0  0  0  0  0  0  0
   -0.9059   -1.2387   -0.4832 C   0  0  0  0  0  0  0  0  0  0  0  0
    2.8564    2.5378    0.2564 H   0  0  0  0  0  0  0  0  0  0  0  0
    2.9638    1.3434   -1.0317 H   0  0  0  0  0  0  0  0  0  0  0  0
    1.3926    1.9868   -0.5621 H   0  0  0  0  0  0  0  0  0  0  0  0
    3.2199    0.1896    1.0974 H   0  0  0  0  0  0  0  0  0  0  0  0
    1.7984    0.9638    1.7683 H   0  0  0  0  0  0  0  0  0  0  0  0
    1.6487   -2.2495   -1.0632 H   0  0  0  0  0  0  0  0  0  0  0  0
    1.7519   -0.6376   -1.7676 H   0  0  0  0  0  0  0  0  0  0  0  0
    3.0822   -1.2741   -0.7926 H   0  0  0  0  0  0  0  0  0  0  0  0
   -0.1210    1.5715    1.2021 H   0  0  0  0  0  0  0  0  0  0  0  0
   -2.4850    1.9825    0.8643 H   0  0  0  0  0  0  0  0  0  0  0  0
   -3.8892    0.3438   -0.3395 H   0  0  0  0  0  0  0  0  0  0  0  0
   -2.8594   -1.7404   -1.1829 H   0  0  0  0  0  0  0  0  0  0  0  0
   -0.4859   -2.1605   -0.8538 H   0  0  0  0  0  0  0  0  0  0  0  0
  1  2  1  0  0  0  0
  2  3  1  0  0  0  0
  3  4  1  0  0  0  0
  3  5  1  0  0  0  0
  3  6  1  0  0  0  0
  6  7  4  0  0  0  0
  7  8  4  0  0  0  0
  8  9  4  0  0  0  0
  9 10  4  0  0  0  0
  6 11  4  0  0  0  0
 10 11  4  0  0  0  0
  1 12  1  0  0  0  0
  1 13  1  0  0  0  0
  1 14  1  0  0  0  0
  2 15  1  0  0  0  0
  2 16  1  0  0  0  0
  5 17  1  0  0  0  0
  5 18  1  0  0  0  0
  5 19  1  0  0  0  0
  7 20  1  0  0  0  0
  8 21  1  0  0  0  0
  9 22  1  0  0  0  0
 10 23  1  0  0  0  0
 11 24  1  0  0  0  0
M  END
