18
 xtb: 6.7.1 (edcfbbe)
C           -2.23075330862418       -0.85202329420682       -0.09324541364634
C           -1.48009499879502        0.45814701488262       -0.32518949482174
C           -0.28180798183995        0.68612174909106        0.62510326719401
C            1.04061090250279        0.18404808242259        0.10458083541059
C            2.08047769249340        1.01017317581106       -0.05806099957094
C            1.14273867581387       -1.27707165720791       -0.22657917169633
H           -2.61917280048233       -0.89555233129000        0.93062533177023
H           -1.59250854316358       -1.72754994272882       -0.24314748552570
H           -3.08206245069058       -0.94061805861449       -0.77677643233173
H           -1.13558460782319        0.51607906924802       -1.36560408925581
H           -2.18433771404299        1.28703597192346       -0.19021540801410
H           -0.18249148283952        1.75487333809061        0.84114234609869
H           -0.50042342021359        0.18674887670630        1.58073979609608
H            3.03807010410073        0.64898955611075       -0.42553264968134
H            2.00202560434320        2.07005422003418        0.17163230645484
H            0.50969112854943       -1.52735710933614       -1.08635840884976
H            2.17053662063187       -1.55914265342111       -0.46977566366634
H            0.79430544144037       -1.89364929419796        0.61027751885538
