17
 xtb: 6.7.1 (edcfbbe)
C           -2.65114001608861        0.40275668697640        0.95975783681564
C           -2.17780396572407        0.38797769327956       -0.49084211684087
C           -0.87961355133507       -0.36037668540509       -0.69051161361644
O            0.16337640254541        0.35799731059929        0.04400725781832
C            1.39530512621383       -0.17511827039564        0.00720789043483
O            1.66132276465971       -1.20251612758850       -0.59915602958377
C            2.38906568500680        0.61607382249838        0.79565716675043
H           -2.77453344420858       -0.61747109588238        1.33960717799654
H           -1.93763545744726        0.92065602192359        1.60778190463893
H           -3.61415486706997        0.91441973188690        1.04850689219080
H           -2.06725278080326        1.41024025777356       -0.87089003079077
H           -2.92425945373510       -0.10539547289981       -1.12403317025160
H           -0.93681577514974       -1.38044346952769       -0.29645890035431
H           -0.58965659788051       -0.39953721559101       -1.74471924363969
H            1.97504367117980        1.55673589175018        1.15750946805181
H            3.26648103655521        0.80361367773215        0.17162815657662
H            2.71348541112599        0.00851085094169        1.64675963145018
