 9

C      0.655000    -0.778000    -0.364000
C      1.950000    -0.774000    -0.826000
N      2.354000    -2.037000    -1.181000
C      1.313000    -2.802000    -0.937000
N      0.260000    -2.084000    -0.442000
H      0.000000    -0.000000     0.001000
H      2.612000     0.074000    -0.922000
H      1.258000    -3.869000    -1.095000
H     -0.644000    -2.453000    -0.178000
