  9
 
 C          0.6550000000       -0.7780000000       -0.3640000000
 C          1.9500000000       -0.7740000000       -0.8260000000
 N          2.3540000000       -2.0370000000       -1.1810000000
 C          1.3130000000       -2.8020000000       -0.9370000000
 N          0.2600000000       -2.0840000000       -0.4420000000
 H          0.0000000000        0.0000000000        0.0010000000
 H          2.6120000000        0.0740000000       -0.9220000000
 H          1.2580000000       -3.8690000000       -1.0950000000
 H         -0.6440000000       -2.4530000000       -0.1780000000
