 xtb: 6.7.1 (edcfbbe)
          04112512213D

 22 22  0     0  0            999 V2000
   -4.3490   -0.6899   -0.0153 C   0  0  0  0  0  0  0  0  0  0  0  0
   -3.4512    0.4061    0.0542 O   0  0  0  0  0  0  0  0  0  0  0  0
   -2.1218    0.1718    0.0254 C   0  0  0  0  0  0  0  0  0  0  0  0
   -1.5355   -1.0906   -0.0718 C   0  0  0  0  0  0  0  0  0  0  0  0
   -0.1612   -1.2063   -0.0911 C   0  0  0  0  0  0  0  0  0  0  0  0
    0.6551   -0.0794   -0.0146 C   0  0  0  0  0  0  0  0  0  0  0  0
    0.0655    1.1847    0.0817 C   0  0  0  0  0  0  0  0  0  0  0  0
   -1.3027    1.3062    0.1011 C   0  0  0  0  0  0  0  0  0  0  0  0
    2.1128   -0.2574   -0.0366 C   0  0  0  0  0  0  0  0  0  0  0  0
    2.6754   -1.3371   -0.1208 O   0  0  0  0  0  0  0  0  0  0  0  0
    2.7868    0.8931    0.0469 O   0  0  0  0  0  0  0  0  0  0  0  0
    4.2115    0.8113    0.0346 C   0  0  0  0  0  0  0  0  0  0  0  0
   -5.3413   -0.2472    0.0271 H   0  0  0  0  0  0  0  0  0  0  0  0
   -4.2101   -1.3654    0.8316 H   0  0  0  0  0  0  0  0  0  0  0  0
   -4.2290   -1.2370   -0.9529 H   0  0  0  0  0  0  0  0  0  0  0  0
   -2.1395   -1.9807   -0.1321 H   0  0  0  0  0  0  0  0  0  0  0  0
    0.3077   -2.1759   -0.1656 H   0  0  0  0  0  0  0  0  0  0  0  0
    0.6931    2.0589    0.1404 H   0  0  0  0  0  0  0  0  0  0  0  0
   -1.7778    2.2710    0.1749 H   0  0  0  0  0  0  0  0  0  0  0  0
    4.5523    0.3622   -0.8994 H   0  0  0  0  0  0  0  0  0  0  0  0
    4.5583    0.1984    0.8679 H   0  0  0  0  0  0  0  0  0  0  0  0
    4.5634    1.8338    0.1279 H   0  0  0  0  0  0  0  0  0  0  0  0
  1  2  1  0  0  0  0
  2  3  1  0  0  0  0
  3  4  4  0  0  0  0
  4  5  4  0  0  0  0
  5  6  4  0  0  0  0
  6  7  4  0  0  0  0
  3  8  4  0  0  0  0
  7  8  2  0  0  0  0
  6  9  1  0  0  0  0
  9 10  2  0  0  0  0
  9 11  1  0  0  0  0
 11 12  1  0  0  0  0
  1 13  1  0  0  0  0
  1 14  1  0  0  0  0
  1 15  1  0  0  0  0
  4 16  1  0  0  0  0
  5 17  1  0  0  0  0
  7 18  1  0  0  0  0
  8 19  1  0  0  0  0
 12 20  1  0  0  0  0
 12 21  1  0  0  0  0
 12 22  1  0  0  0  0
M  END
