22
 xtb: 6.7.1 (edcfbbe)
C           -2.03307245534436        1.34759359759454       -0.70199355096261
C           -2.12921598834311        0.23684929485725        0.34235255306826
C           -3.54834900379391       -0.32350883509964        0.41068771749031
C           -1.13520876933039       -0.90666146959857        0.04217676051906
C            0.29288292855628       -0.46117314210826        0.06400707884027
C            0.99848242621100       -0.22025843293715       -1.11922170428652
N            2.26485695120426        0.20381890538176       -1.13816004456371
C            2.83669056563349        0.39190325858299        0.05806728997709
C            2.14793035420312        0.15824539030879        1.23980817397638
N            0.87986188936095       -0.26728163275432        1.25670979454345
H           -2.26184101436607        0.95633758409312       -1.70103522902865
H           -1.03249676437415        1.79214307264106       -0.73512281470325
H           -2.74717484058007        2.14793702274004       -0.48163795556787
H           -1.87023066724496        0.65441564642951        1.32462783506956
H           -3.63086901419507       -1.10714307505407        1.17129733970085
H           -4.26818493935663        0.46489796785157        0.65457119056661
H           -3.83743586519706       -0.75625823565585       -0.55471222515978
H           -1.37014318873580       -1.32630000349504       -0.94326158413647
H           -1.27056357814256       -1.69896982324732        0.78684159655833
H            0.51517000761996       -0.38136634256154       -2.08046961359981
H            3.86787810586771        0.73439133974816        0.07550071999975
H            2.63374769186247        0.31556086180156        2.19999850923752
