  32
 
 C          1.6470000000        1.0970000000       -0.1440000000
 C          0.4360000000        0.4920000000       -0.8210000000
 O          0.8700000000       -0.4090000000       -1.8260000000
 P         -0.2260000000       -1.2120000000       -2.7240000000
 S         -1.4490000000       -2.3690000000       -1.7410000000
 O          0.7380000000       -1.9140000000       -3.8320000000
 C          1.7520000000       -2.8120000000       -3.4150000000
 C          2.4970000000       -3.3180000000       -4.6330000000
 O         -0.8840000000        0.0040000000       -3.5710000000
 C         -1.8820000000       -0.1000000000       -4.5020000000
 C         -2.0130000000       -1.2650000000       -5.2570000000
 C         -3.0300000000       -1.3710000000       -6.2060000000
 C         -3.9160000000       -0.3110000000       -6.3990000000
 C         -3.7850000000        0.8540000000       -5.6440000000
 C         -2.7680000000        0.9600000000       -4.6960000000
 N         -4.9510000000       -0.4190000000       -7.3650000000
 O         -5.7380000000        0.5450000000       -7.5240000000
 O         -5.0510000000       -1.4760000000       -8.0340000000
 H          1.3460000000        1.7980000000        0.6390000000
 H          2.2700000000        0.3150000000        0.3020000000
 H          2.2720000000        1.6250000000       -0.8710000000
 H         -0.1730000000        1.2720000000       -1.2870000000
 H         -0.1760000000       -0.0560000000       -0.0980000000
 H          2.4360000000       -2.2860000000       -2.7410000000
 H          1.2900000000       -3.6440000000       -2.8760000000
 H          3.2890000000       -4.0150000000       -4.3460000000
 H          1.8110000000       -3.8250000000       -5.3200000000
 H          2.9420000000       -2.4840000000       -5.1860000000
 H         -1.3260000000       -2.0940000000       -5.1110000000
 H         -3.1210000000       -2.2850000000       -6.7880000000
 H         -4.4690000000        1.6870000000       -5.7850000000
 H         -2.6710000000        1.8700000000       -4.1100000000
