 xtb: 6.7.1 (edcfbbe)
          04112512243D

 14 13  0     0  0            999 V2000
   -2.8122    0.2293   -0.0002 C   0  0  0  0  0  0  0  0  0  0  0  0
   -1.4447   -0.4414   -0.0009 C   0  0  0  0  0  0  0  0  0  0  0  0
   -0.3192    0.5886    0.0012 C   0  0  0  0  0  0  0  0  0  0  0  0
    1.0442   -0.0433    0.0007 C   0  0  0  0  0  0  0  0  0  0  0  0
    1.2679   -1.2347    0.0003 O   0  0  0  0  0  0  0  0  0  0  0  0
    2.0149    0.8613   -0.0004 O   0  0  0  0  0  0  0  0  0  0  0  0
   -3.5993   -0.5196   -0.0016 H   0  0  0  0  0  0  0  0  0  0  0  0
   -2.9308    0.8546   -0.8816 H   0  0  0  0  0  0  0  0  0  0  0  0
   -2.9313    0.8519    0.8831 H   0  0  0  0  0  0  0  0  0  0  0  0
   -1.3422   -1.0828    0.8764 H   0  0  0  0  0  0  0  0  0  0  0  0
   -1.3416   -1.0799   -0.8801 H   0  0  0  0  0  0  0  0  0  0  0  0
   -0.3832    1.2362   -0.8758 H   0  0  0  0  0  0  0  0  0  0  0  0
   -0.3836    1.2327    0.8808 H   0  0  0  0  0  0  0  0  0  0  0  0
    2.9048    0.4588   -0.0012 H   0  0  0  0  0  0  0  0  0  0  0  0
  1  2  1  0  0  0  0
  2  3  1  0  0  0  0
  3  4  1  0  0  0  0
  4  5  2  0  0  0  0
  4  6  1  0  0  0  0
  1  7  1  0  0  0  0
  1  8  1  0  0  0  0
  1  9  1  0  0  0  0
  2 10  1  0  0  0  0
  2 11  1  0  0  0  0
  3 12  1  0  0  0  0
  3 13  1  0  0  0  0
  6 14  1  0  0  0  0
M  END
