 xtb: 6.7.1 (edcfbbe)
          04112511493D

 21 20  0     0  0            999 V2000
    1.8670   -1.0218   -0.4822 C   0  0  0  0  0  0  0  0  0  0  0  0
    1.2284   -0.0004    0.4532 C   0  0  0  0  0  0  0  0  0  0  0  0
    1.0143   -0.4869    1.4198 H   0  0  0  0  0  0  0  0  0  0  0  0
   -0.0694    0.6192   -0.0925 C   0  0  0  0  0  0  0  0  0  0  0  0
   -1.3497   -0.1941    0.1507 C   0  0  0  0  0  0  0  0  0  0  0  0
   -2.5563    0.7467    0.1700 C   0  0  0  0  0  0  0  0  0  0  0  0
   -1.5734   -1.2727   -0.9068 C   0  0  0  0  0  0  0  0  0  0  0  0
    2.2140    1.0052    0.6600 O   0  0  0  0  0  0  0  0  0  0  0  0
    2.8490   -1.2850   -0.0969 H   0  0  0  0  0  0  0  0  0  0  0  0
    1.2633   -1.9192   -0.5493 H   0  0  0  0  0  0  0  0  0  0  0  0
    1.9914   -0.5905   -1.4717 H   0  0  0  0  0  0  0  0  0  0  0  0
   -0.1918    1.5872    0.4012 H   0  0  0  0  0  0  0  0  0  0  0  0
    0.0493    0.8161   -1.1594 H   0  0  0  0  0  0  0  0  0  0  0  0
   -1.2743   -0.6765    1.1321 H   0  0  0  0  0  0  0  0  0  0  0  0
   -2.6411    1.2683   -0.7807 H   0  0  0  0  0  0  0  0  0  0  0  0
   -2.4614    1.4859    0.9620 H   0  0  0  0  0  0  0  0  0  0  0  0
   -3.4728    0.1857    0.3359 H   0  0  0  0  0  0  0  0  0  0  0  0
   -2.5150   -1.7853   -0.7226 H   0  0  0  0  0  0  0  0  0  0  0  0
   -1.6149   -0.8265   -1.8978 H   0  0  0  0  0  0  0  0  0  0  0  0
   -0.7799   -2.0127   -0.8952 H   0  0  0  0  0  0  0  0  0  0  0  0
    1.8775    1.6670    1.2785 H   0  0  0  0  0  0  0  0  0  0  0  0
  1  2  1  0  0  0  0
  2  3  1  0  0  0  0
  2  4  1  0  0  0  0
  4  5  1  0  0  0  0
  5  6  1  0  0  0  0
  5  7  1  0  0  0  0
  2  8  1  0  0  0  0
  1  9  1  0  0  0  0
  1 10  1  0  0  0  0
  1 11  1  0  0  0  0
  4 12  1  0  0  0  0
  4 13  1  0  0  0  0
  5 14  1  0  0  0  0
  6 15  1  0  0  0  0
  6 16  1  0  0  0  0
  6 17  1  0  0  0  0
  7 18  1  0  0  0  0
  7 19  1  0  0  0  0
  7 20  1  0  0  0  0
  8 21  1  0  0  0  0
M  END
