 xtb: 6.7.1 (edcfbbe)
          04112511533D

 15 14  0     0  0            999 V2000
   -2.2277   -0.8458    0.2283 C   0  0  0  0  0  0  0  0  0  0  0  0
   -1.5371    0.5007    0.3326 C   0  0  0  0  0  0  0  0  0  0  0  0
    0.0511    0.5650   -0.5709 S   0  0  0  0  0  0  0  0  0  0  0  0
    1.0949   -0.4831    0.5151 C   0  0  0  0  0  0  0  0  0  0  0  0
    2.5538   -0.3366    0.1288 C   0  0  0  0  0  0  0  0  0  0  0  0
   -3.2029   -0.7935    0.7065 H   0  0  0  0  0  0  0  0  0  0  0  0
   -2.3627   -1.1181   -0.8158 H   0  0  0  0  0  0  0  0  0  0  0  0
   -1.6444   -1.6216    0.7185 H   0  0  0  0  0  0  0  0  0  0  0  0
   -1.3317    0.7724    1.3681 H   0  0  0  0  0  0  0  0  0  0  0  0
   -2.1371    1.2832   -0.1300 H   0  0  0  0  0  0  0  0  0  0  0  0
    0.9221   -0.1498    1.5386 H   0  0  0  0  0  0  0  0  0  0  0  0
    0.7633   -1.5148    0.3999 H   0  0  0  0  0  0  0  0  0  0  0  0
    3.1702   -0.9557    0.7760 H   0  0  0  0  0  0  0  0  0  0  0  0
    2.7037   -0.6456   -0.9028 H   0  0  0  0  0  0  0  0  0  0  0  0
    2.8679    0.6999    0.2256 H   0  0  0  0  0  0  0  0  0  0  0  0
  1  2  1  0  0  0  0
  2  3  1  0  0  0  0
  3  4  1  0  0  0  0
  4  5  1  0  0  0  0
  1  6  1  0  0  0  0
  1  7  1  0  0  0  0
  1  8  1  0  0  0  0
  2  9  1  0  0  0  0
  2 10  1  0  0  0  0
  4 11  1  0  0  0  0
  4 12  1  0  0  0  0
  5 13  1  0  0  0  0
  5 14  1  0  0  0  0
  5 15  1  0  0  0  0
M  END
