  34
 
 C          0.5640000000       -0.4710000000       -1.7460000000
 C          0.3960000000       -0.2380000000       -0.2520000000
 C         -0.9770000000       -0.6580000000        0.2590000000
 N         -1.1300000000       -0.4300000000        1.6970000000
 C         -1.6470000000        0.8390000000        2.1960000000
 C         -3.1570000000        0.8140000000        2.3280000000
 C         -3.7310000000        2.1250000000        2.8470000000
 C         -0.7820000000       -1.4290000000        2.6200000000
 O         -0.8860000000       -1.3050000000        3.8380000000
 S         -0.1360000000       -2.9330000000        1.9400000000
 C          0.1600000000       -3.8890000000        3.4430000000
 C          0.7350000000       -5.2640000000        3.1080000000
 C          0.9890000000       -6.0820000000        4.3660000000
 H          1.5590000000       -0.1600000000       -2.0830000000
 H          0.4470000000       -1.5350000000       -1.9770000000
 H         -0.1840000000        0.0810000000       -2.3230000000
 H          0.5390000000        0.8300000000       -0.0460000000
 H          1.1810000000       -0.7800000000        0.2880000000
 H         -1.7570000000       -0.0770000000       -0.2420000000
 H         -1.1650000000       -1.7190000000        0.0660000000
 H         -1.3320000000        1.5930000000        1.4770000000
 H         -1.1530000000        1.0270000000        3.1470000000
 H         -3.5820000000        0.6140000000        1.3380000000
 H         -3.4720000000       -0.0030000000        2.9880000000
 H         -4.8210000000        2.0710000000        2.9290000000
 H         -3.3270000000        2.3460000000        3.8400000000
 H         -3.4760000000        2.9610000000        2.1880000000
 H         -0.7860000000       -3.9950000000        3.9890000000
 H          0.8540000000       -3.3340000000        4.0870000000
 H          0.0420000000       -5.8180000000        2.4630000000
 H          1.6790000000       -5.1580000000        2.5610000000
 H          1.4010000000       -7.0660000000        4.1180000000
 H          1.7060000000       -5.5680000000        5.0140000000
 H          0.0640000000       -6.2290000000        4.9320000000
