 xtb: 6.7.1 (edcfbbe)
          04112511103D

 18 17  0     0  0            999 V2000
    2.8295   -0.3285    0.1639 C   0  0  0  0  0  0  0  0  0  0  0  0
    1.4427   -0.4965   -0.4460 C   0  0  0  0  0  0  0  0  0  0  0  0
    0.3970    0.3006    0.3277 C   0  0  0  0  0  0  0  0  0  0  0  0
   -1.0015    0.2530   -0.2951 C   0  0  0  0  0  0  0  0  0  0  0  0
   -0.9166    0.4817   -1.3715 H   0  0  0  0  0  0  0  0  0  0  0  0
   -1.6714   -1.1083   -0.1228 C   0  0  0  0  0  0  0  0  0  0  0  0
   -1.7566    1.2804    0.3328 O   0  0  0  0  0  0  0  0  0  0  0  0
    3.5641   -0.9020   -0.3959 H   0  0  0  0  0  0  0  0  0  0  0  0
    2.8350   -0.6738    1.1950 H   0  0  0  0  0  0  0  0  0  0  0  0
    3.1266    0.7176    0.1523 H   0  0  0  0  0  0  0  0  0  0  0  0
    1.4585   -0.1575   -1.4843 H   0  0  0  0  0  0  0  0  0  0  0  0
    1.1780   -1.5550   -0.4438 H   0  0  0  0  0  0  0  0  0  0  0  0
    0.3331   -0.0610    1.3556 H   0  0  0  0  0  0  0  0  0  0  0  0
    0.6961    1.3505    0.3681 H   0  0  0  0  0  0  0  0  0  0  0  0
   -1.0768   -1.8813   -0.5987 H   0  0  0  0  0  0  0  0  0  0  0  0
   -1.7724   -1.3375    0.9355 H   0  0  0  0  0  0  0  0  0  0  0  0
   -2.6598   -1.1073   -0.5774 H   0  0  0  0  0  0  0  0  0  0  0  0
   -2.6702    1.2413    0.0191 H   0  0  0  0  0  0  0  0  0  0  0  0
  1  2  1  0  0  0  0
  2  3  1  0  0  0  0
  3  4  1  0  0  0  0
  4  5  1  0  0  0  0
  4  6  1  0  0  0  0
  4  7  1  0  0  0  0
  1  8  1  0  0  0  0
  1  9  1  0  0  0  0
  1 10  1  0  0  0  0
  2 11  1  0  0  0  0
  2 12  1  0  0  0  0
  3 13  1  0  0  0  0
  3 14  1  0  0  0  0
  6 15  1  0  0  0  0
  6 16  1  0  0  0  0
  6 17  1  0  0  0  0
  7 18  1  0  0  0  0
M  END
