 xtb: 6.7.1 (edcfbbe)
          04112511223D

 22 21  0     0  0            999 V2000
    1.7771    1.3090    0.7407 C   0  0  0  0  0  0  0  0  0  0  0  0
    1.2766   -0.1200    0.4877 C   0  0  0  0  0  0  0  0  0  0  0  0
    2.3283   -0.9381   -0.2556 C   0  0  0  0  0  0  0  0  0  0  0  0
   -0.0000    0.0009   -0.3221 C   0  0  0  0  0  0  0  0  0  0  0  0
   -0.0000    0.0034   -1.5358 O   0  0  0  0  0  0  0  0  0  0  0  0
   -1.2767    0.1183    0.4882 C   0  0  0  0  0  0  0  0  0  0  0  0
   -1.7763   -1.3118    0.7367 C   0  0  0  0  0  0  0  0  0  0  0  0
   -2.3290    0.9382   -0.2524 C   0  0  0  0  0  0  0  0  0  0  0  0
    1.9863    1.8011   -0.2066 H   0  0  0  0  0  0  0  0  0  0  0  0
    2.6908    1.2790    1.3279 H   0  0  0  0  0  0  0  0  0  0  0  0
    1.0346    1.8931    1.2785 H   0  0  0  0  0  0  0  0  0  0  0  0
    1.0488   -0.5886    1.4488 H   0  0  0  0  0  0  0  0  0  0  0  0
    2.5023   -0.5095   -1.2399 H   0  0  0  0  0  0  0  0  0  0  0  0
    3.2632   -0.9455    0.2977 H   0  0  0  0  0  0  0  0  0  0  0  0
    1.9887   -1.9629   -0.3874 H   0  0  0  0  0  0  0  0  0  0  0  0
   -1.0491    0.5840    1.4507 H   0  0  0  0  0  0  0  0  0  0  0  0
   -1.0337   -1.8970    1.2731 H   0  0  0  0  0  0  0  0  0  0  0  0
   -2.6903   -1.2842    1.3234 H   0  0  0  0  0  0  0  0  0  0  0  0
   -1.9847   -1.8012   -0.2122 H   0  0  0  0  0  0  0  0  0  0  0  0
   -1.9894    1.9632   -0.3823 H   0  0  0  0  0  0  0  0  0  0  0  0
   -2.5039    0.5118   -1.2375 H   0  0  0  0  0  0  0  0  0  0  0  0
   -3.2633    0.9445    0.3018 H   0  0  0  0  0  0  0  0  0  0  0  0
  1  2  1  0  0  0  0
  2  3  1  0  0  0  0
  2  4  1  0  0  0  0
  4  5  2  0  0  0  0
  4  6  1  0  0  0  0
  6  7  1  0  0  0  0
  6  8  1  0  0  0  0
  1  9  1  0  0  0  0
  1 10  1  0  0  0  0
  1 11  1  0  0  0  0
  2 12  1  0  0  0  0
  3 13  1  0  0  0  0
  3 14  1  0  0  0  0
  3 15  1  0  0  0  0
  6 16  1  0  0  0  0
  7 17  1  0  0  0  0
  7 18  1  0  0  0  0
  7 19  1  0  0  0  0
  8 20  1  0  0  0  0
  8 21  1  0  0  0  0
  8 22  1  0  0  0  0
M  END
