22
 xtb: 6.7.1 (edcfbbe)
C            2.01430103872692        1.54782546323891       -0.34192011505707
C            1.22950852328592        0.45880972743396        0.38000219002841
C            2.06573623472835       -0.82630296206381        0.53630955361711
C           -0.03532913413166        0.06888631591034       -0.35614047382712
O           -0.10264592802988        0.11316152187066       -1.58082766278583
C           -1.21008095808773       -0.38131668046897        0.48624067424668
C           -2.12305094796304       -1.35168265999653       -0.25256778365216
C           -1.97014520755944        0.89105926736263        0.90993352243586
H            1.40947413833089        2.45036608070418       -0.47527605047550
H            2.34154093897560        1.20611136913635       -1.32840716828221
H            2.90332528137509        1.81414541537412        0.23773449742734
H            0.94445056225387        0.80060038670124        1.38225580395668
H            1.50569339481049       -1.61562638939972        1.04718557424611
H            2.37446619473229       -1.19869208598471       -0.44604261113526
H            2.96386583409531       -0.61017382056671        1.12251790741602
H           -0.80907554824836       -0.85341713128987        1.39192188470741
H           -1.57534992990221       -2.24053481486221       -0.58130201048634
H           -2.93615171008877       -1.67381925771590        0.40494641673309
H           -2.56662968413637       -0.87839407873523       -1.13381195077611
H           -2.37624375319345        1.39986824277519        0.02941388099616
H           -2.80240490954528        0.61839014033380        1.56556190221777
H           -1.32554777000886        1.59143435190031        1.44939936860191
