 xtb: 6.7.1 (edcfbbe)
          04112512153D

 21 20  0     0  0            999 V2000
    1.8739   -1.0443    0.3678 C   0  0  0  0  0  0  0  0  0  0  0  0
    1.2740    0.2729    0.8456 C   0  0  0  0  0  0  0  0  0  0  0  0
    0.1714    0.8635   -0.0462 C   0  0  0  0  0  0  0  0  0  0  0  0
   -0.0437    1.8662    0.3685 H   0  0  0  0  0  0  0  0  0  0  0  0
   -1.1862    0.1220   -0.0960 C   0  0  0  0  0  0  0  0  0  0  0  0
   -1.1357   -1.2140   -0.8369 C   0  0  0  0  0  0  0  0  0  0  0  0
   -1.7867   -0.0485    1.2966 C   0  0  0  0  0  0  0  0  0  0  0  0
    0.7167    1.0198   -1.3465 O   0  0  0  0  0  0  0  0  0  0  0  0
    2.0976   -0.9832   -0.6936 H   0  0  0  0  0  0  0  0  0  0  0  0
    1.2009   -1.8777    0.5391 H   0  0  0  0  0  0  0  0  0  0  0  0
    2.7985   -1.2390    0.9062 H   0  0  0  0  0  0  0  0  0  0  0  0
    0.8877    0.1704    1.8592 H   0  0  0  0  0  0  0  0  0  0  0  0
    2.0718    1.0193    0.8675 H   0  0  0  0  0  0  0  0  0  0  0  0
   -1.8514    0.7857   -0.6657 H   0  0  0  0  0  0  0  0  0  0  0  0
   -2.1301   -1.4812   -1.1872 H   0  0  0  0  0  0  0  0  0  0  0  0
   -0.4710   -1.1468   -1.6943 H   0  0  0  0  0  0  0  0  0  0  0  0
   -0.7844   -2.0095   -0.1872 H   0  0  0  0  0  0  0  0  0  0  0  0
   -1.2114   -0.7614    1.8811 H   0  0  0  0  0  0  0  0  0  0  0  0
   -2.8051   -0.4204    1.2148 H   0  0  0  0  0  0  0  0  0  0  0  0
   -1.8070    0.9010    1.8269 H   0  0  0  0  0  0  0  0  0  0  0  0
    0.0773    1.4820   -1.9039 H   0  0  0  0  0  0  0  0  0  0  0  0
  1  2  1  0  0  0  0
  2  3  1  0  0  0  0
  3  4  1  0  0  0  0
  3  5  1  0  0  0  0
  5  6  1  0  0  0  0
  5  7  1  0  0  0  0
  3  8  1  0  0  0  0
  1  9  1  0  0  0  0
  1 10  1  0  0  0  0
  1 11  1  0  0  0  0
  2 12  1  0  0  0  0
  2 13  1  0  0  0  0
  5 14  1  0  0  0  0
  6 15  1  0  0  0  0
  6 16  1  0  0  0  0
  6 17  1  0  0  0  0
  7 18  1  0  0  0  0
  7 19  1  0  0  0  0
  7 20  1  0  0  0  0
  8 21  1  0  0  0  0
M  END
