 xtb: 6.7.1 (edcfbbe)
          04112512323D

 16 15  0     0  0            999 V2000
   -2.1026   -0.4124   -0.4545 C   0  0  0  0  0  0  0  0  0  0  0  0
   -1.2744    0.2393    0.6490 C   0  0  0  0  0  0  0  0  0  0  0  0
    0.0415    0.6353    0.1727 N   0  0  0  0  0  0  0  0  0  0  0  0
    0.9537   -0.4761   -0.0452 C   0  0  0  0  0  0  0  0  0  0  0  0
    2.3557    0.0345   -0.3450 C   0  0  0  0  0  0  0  0  0  0  0  0
   -1.7001   -1.3852   -0.7229 H   0  0  0  0  0  0  0  0  0  0  0  0
   -3.1259   -0.5453   -0.1146 H   0  0  0  0  0  0  0  0  0  0  0  0
   -2.1002    0.2224   -1.3356 H   0  0  0  0  0  0  0  0  0  0  0  0
   -1.2095   -0.4525    1.5102 H   0  0  0  0  0  0  0  0  0  0  0  0
   -1.7834    1.1465    0.9833 H   0  0  0  0  0  0  0  0  0  0  0  0
    0.4608    1.2665    0.8492 H   0  0  0  0  0  0  0  0  0  0  0  0
    0.9839   -1.1568    0.8275 H   0  0  0  0  0  0  0  0  0  0  0  0
    0.5855   -1.0493   -0.9001 H   0  0  0  0  0  0  0  0  0  0  0  0
    2.7577    0.5728    0.5108 H   0  0  0  0  0  0  0  0  0  0  0  0
    3.0155   -0.7980   -0.5727 H   0  0  0  0  0  0  0  0  0  0  0  0
    2.3282    0.7080   -1.1965 H   0  0  0  0  0  0  0  0  0  0  0  0
  1  2  1  0  0  0  0
  2  3  1  0  0  0  0
  3  4  1  0  0  0  0
  4  5  1  0  0  0  0
  1  6  1  0  0  0  0
  1  7  1  0  0  0  0
  1  8  1  0  0  0  0
  2  9  1  0  0  0  0
  2 10  1  0  0  0  0
  3 11  1  0  0  0  0
  4 12  1  0  0  0  0
  4 13  1  0  0  0  0
  5 14  1  0  0  0  0
  5 15  1  0  0  0  0
  5 16  1  0  0  0  0
M  END
