23
 xtb: 6.7.1 (edcfbbe)
C            1.80854707614739        1.33770865282156        0.00448909186092
C            0.99105576848876        0.33022849735087        0.80858671652485
C           -0.00019451281006       -0.53449438342299       -0.00004967791669
C            0.75944393001598       -1.43421846450799       -0.98403619191789
C           -0.76043665636384       -1.43383339316551        0.98381806410783
C           -0.99082253618195        0.33105668285501       -0.80854966080575
C           -1.80781304188362        1.33878840376329       -0.00424922830675
H            2.49870431936449        1.87822447691429        0.66075500327533
H            1.17166780454997        2.08231934667699       -0.48429675210777
H            2.40867782048141        0.85028835508494       -0.77065067993324
H            1.67392786600057       -0.35082744634235        1.33437187917915
H            0.43431602013463        0.86335094194393        1.58985562690507
H            1.28260391641753       -0.85070852257424       -1.74882015684289
H            0.06602163454186       -2.10887950982162       -1.49979748826584
H            1.50018957447874       -2.04922358312519       -0.45951446960997
H           -1.28317724667632       -0.85005916289974        1.74868912135901
H           -1.50160863939632       -2.04827609362251        0.45923640808408
H           -0.06745342810754       -2.10902720719511        1.49947439039050
H           -0.43365149849107        0.86406390825528       -1.58959247144094
H           -1.67406351031011       -0.34941825872733       -1.33461935359825
H           -2.49690008404654        1.88057277807529       -0.66059471915543
H           -2.40903175472161        0.85138594849079        0.77006350646294
H           -1.17047885718248        2.08231596656583        0.48560070988100
