  34
 
 C          0.9200000000        3.5300000000        0.2260000000
 C          0.1570000000        2.2640000000        0.5510000000
 O          0.6020000000        1.2240000000       -0.3030000000
 P         -0.0700000000       -0.2420000000       -0.1490000000
 O          0.4570000000       -1.2870000000       -1.0910000000
 O          0.1210000000       -0.5730000000        1.4250000000
 C          1.3840000000       -1.0410000000        1.8670000000
 C          1.3280000000       -1.2820000000        3.3620000000
 O         -1.6550000000        0.0610000000       -0.2760000000
 C         -2.6030000000       -0.9020000000       -0.2030000000
 C         -2.3280000000       -2.2160000000       -0.0160000000
 Cl        -3.5500000000       -3.4170000000        0.0730000000
 C         -4.0090000000       -0.4300000000       -0.3200000000
 C         -4.5710000000       -0.3710000000       -1.5960000000
 C         -5.8860000000        0.0630000000       -1.7590000000
 C         -6.6400000000        0.4390000000       -0.6470000000
 C         -6.0780000000        0.3790000000        0.6280000000
 C         -4.7630000000       -0.0550000000        0.7920000000
 Cl        -4.1160000000       -0.1110000000        2.3950000000
 Cl        -8.2620000000        0.9750000000       -0.8500000000
 H          0.6000000000        4.3540000000        0.8690000000
 H          1.9960000000        3.3760000000        0.3570000000
 H          0.7640000000        3.8170000000       -0.8200000000
 H         -0.9160000000        2.4120000000        0.3960000000
 H          0.3320000000        1.9660000000        1.5890000000
 H          1.6220000000       -1.9710000000        1.3400000000
 H          2.1440000000       -0.2910000000        1.6290000000
 H          2.2890000000       -1.6450000000        3.7360000000
 H          1.0680000000       -0.3590000000        3.8910000000
 H          0.5530000000       -2.0160000000        3.6050000000
 H         -1.3410000000       -2.6480000000        0.0840000000
 H         -3.9980000000       -0.6600000000       -2.4740000000
 H         -6.3100000000        0.1050000000       -2.7590000000
 H         -6.6690000000        0.6700000000        1.4940000000
