 xtb: 6.7.1 (edcfbbe)
          04112511123D

 15 14  0     0  0            999 V2000
   -2.4253    0.1010   -0.1332 C   0  0  0  0  0  0  0  0  0  0  0  0
   -1.0012    0.4154    0.3073 C   0  0  0  0  0  0  0  0  0  0  0  0
   -0.0177   -0.6284   -0.2279 C   0  0  0  0  0  0  0  0  0  0  0  0
    1.2956   -0.5093    0.2896 O   0  0  0  0  0  0  0  0  0  0  0  0
    2.0237    0.5998   -0.1956 C   0  0  0  0  0  0  0  0  0  0  0  0
   -3.1113    0.8525    0.2476 H   0  0  0  0  0  0  0  0  0  0  0  0
   -2.4932    0.0885   -1.2184 H   0  0  0  0  0  0  0  0  0  0  0  0
   -2.7343   -0.8716    0.2414 H   0  0  0  0  0  0  0  0  0  0  0  0
   -0.9382    0.4223    1.3973 H   0  0  0  0  0  0  0  0  0  0  0  0
   -0.7200    1.4059   -0.0550 H   0  0  0  0  0  0  0  0  0  0  0  0
   -0.3394   -1.6278    0.0763 H   0  0  0  0  0  0  0  0  0  0  0  0
    0.0125   -0.5867   -1.3269 H   0  0  0  0  0  0  0  0  0  0  0  0
    3.0408    0.4711    0.1671 H   0  0  0  0  0  0  0  0  0  0  0  0
    1.6207    1.5442    0.1813 H   0  0  0  0  0  0  0  0  0  0  0  0
    2.0216    0.6167   -1.2909 H   0  0  0  0  0  0  0  0  0  0  0  0
  1  2  1  0  0  0  0
  2  3  1  0  0  0  0
  3  4  1  0  0  0  0
  4  5  1  0  0  0  0
  1  6  1  0  0  0  0
  1  7  1  0  0  0  0
  1  8  1  0  0  0  0
  2  9  1  0  0  0  0
  2 10  1  0  0  0  0
  3 11  1  0  0  0  0
  3 12  1  0  0  0  0
  5 13  1  0  0  0  0
  5 14  1  0  0  0  0
  5 15  1  0  0  0  0
M  END
