 22

C      0.838000     1.294000    -1.844000
C      1.952000     0.555000    -1.862000
C      1.740000    -0.844000    -1.375000
H      2.406000    -1.093000    -0.547000
C      0.249000    -0.887000    -0.994000
H     -0.280000    -1.656000    -1.573000
C     -0.343000     0.528000    -1.342000
H     -1.089000     0.441000    -2.141000
C     -0.987000     0.976000     0.015000
C      0.130000     1.208000     1.016000
C      0.650000     0.013000     1.319000
C     -0.116000    -1.031000     0.527000
C     -1.538000    -0.377000     0.573000
Cl    -2.257000    -0.268000     2.224000
Cl    -2.770000    -1.168000    -0.462000
Cl    -0.030000    -2.678000     1.119000
Cl     1.939000    -0.327000     2.363000
Cl     0.619000     2.731000     1.570000
Cl    -2.172000     2.255000    -0.147000
Cl     2.099000    -1.982000    -2.700000
H      0.792000     2.328000    -2.156000
H      2.912000     0.933000    -2.186000
