15
 xtb: 6.7.1 (edcfbbe)
C            3.09458749298821       -0.42848563298709        0.16637071667884
C            1.89056961437860        0.31127677321619       -0.40926694397851
C            0.56743651364933       -0.21627475771585        0.14931669502972
C           -0.62452512509861        0.51945890089020       -0.44272544353808
S           -2.25381560828509       -0.03822283829154        0.23487981528244
H            3.13075309155177       -0.32928326357283        1.25683857118341
H            4.03351682701336       -0.03663720729663       -0.23732195178936
H            3.04745828431468       -1.49712423809369       -0.07036378833899
H            1.88639481691361        0.21699814138756       -1.50267550478077
H            1.97334196276527        1.38296540092050       -0.18713379470444
H            0.55912668292609       -0.11033248853312        1.24082194031748
H            0.48006936990389       -1.28844140901466       -0.06967254282103
H           -0.57901948517011        1.58809604472560       -0.20727056159864
H           -0.64952847680149        0.41942671386784       -1.53184864863748
H           -2.15824264798839       -1.31738590912916       -0.17536772178219
