  6
 
 C          0.2020000000        0.6400000000       -0.0290000000
 C         -0.2020000000       -0.6400000000        0.0290000000
 Cl         0.9120000000       -1.9720000000        0.0230000000
 Cl        -1.8780000000       -1.0880000000        0.1160000000
 Cl        -0.9120000000        1.9720000000       -0.0230000000
 Cl         1.8780000000        1.0880000000       -0.1160000000
