14
 xtb: 6.7.1 (edcfbbe)
C           -1.01404049918310       -0.48415781989650       -0.32573240363285
C            0.13855385192898        0.30646905064568        0.27094849575849
C            1.47338162651386       -0.06423891639919       -0.35269199883138
O            1.78572338663176       -1.40819248703686        0.03888892458393
O           -0.04170761143077        1.71057398899464        0.03189841661504
O           -2.27227890155732       -0.05664024835336        0.22428679487960
H           -0.86155604579776       -1.55809497565042       -0.16202618224781
H           -1.07111586416681       -0.29387114905008       -1.40318127204443
H            0.18365983034638        0.11304451206450        1.35583548059574
H            2.23981633185566        0.63589211095852        0.00651910734113
H            1.40817925989942        0.02080440399945       -1.44730785453083
H            2.64043384458858       -1.63059047844923       -0.35004283895047
H           -0.96386577045496        1.90597552933359        0.25101241640305
H           -2.28568808745395       -0.32103500647551        1.15389581838461
