 xtb: 6.7.1 (edcfbbe)
          04112511243D

 26 27  0     0  0            999 V2000
   -0.0693   -2.5251   -0.0278 C   0  0  0  0  0  0  0  0  0  0  0  0
    0.0139   -1.1956   -0.0083 C   0  0  0  0  0  0  0  0  0  0  0  0
   -1.2443   -0.4108   -0.1223 C   0  0  0  0  0  0  0  0  0  0  0  0
   -1.9998   -0.1290    1.0094 C   0  0  0  0  0  0  0  0  0  0  0  0
   -3.1813    0.5837    0.9017 C   0  0  0  0  0  0  0  0  0  0  0  0
   -3.6197    1.0194   -0.3375 C   0  0  0  0  0  0  0  0  0  0  0  0
   -2.8724    0.7399   -1.4697 C   0  0  0  0  0  0  0  0  0  0  0  0
   -1.6903    0.0286   -1.3634 C   0  0  0  0  0  0  0  0  0  0  0  0
    1.2643   -0.4335    0.1169 C   0  0  0  0  0  0  0  0  0  0  0  0
    2.5023   -1.0575    0.2831 C   0  0  0  0  0  0  0  0  0  0  0  0
    3.6619   -0.3158    0.3988 C   0  0  0  0  0  0  0  0  0  0  0  0
    3.6168    1.0682    0.3523 C   0  0  0  0  0  0  0  0  0  0  0  0
    2.3970    1.7029    0.1915 C   0  0  0  0  0  0  0  0  0  0  0  0
    1.2355    0.9623    0.0769 C   0  0  0  0  0  0  0  0  0  0  0  0
    0.7858   -3.1729    0.0427 H   0  0  0  0  0  0  0  0  0  0  0  0
   -1.0253   -3.0119   -0.1226 H   0  0  0  0  0  0  0  0  0  0  0  0
   -1.6548   -0.4702    1.9746 H   0  0  0  0  0  0  0  0  0  0  0  0
   -3.7613    0.7984    1.7870 H   0  0  0  0  0  0  0  0  0  0  0  0
   -4.5419    1.5746   -0.4211 H   0  0  0  0  0  0  0  0  0  0  0  0
   -3.2113    1.0767   -2.4382 H   0  0  0  0  0  0  0  0  0  0  0  0
   -1.1042   -0.1899   -2.2445 H   0  0  0  0  0  0  0  0  0  0  0  0
    2.5650   -2.1331    0.3259 H   0  0  0  0  0  0  0  0  0  0  0  0
    4.6082   -0.8203    0.5271 H   0  0  0  0  0  0  0  0  0  0  0  0
    4.5244    1.6457    0.4421 H   0  0  0  0  0  0  0  0  0  0  0  0
    2.3485    2.7812    0.1556 H   0  0  0  0  0  0  0  0  0  0  0  0
    0.2916    1.4725   -0.0463 H   0  0  0  0  0  0  0  0  0  0  0  0
  1  2  2  0  0  0  0
  2  3  1  0  0  0  0
  3  4  4  0  0  0  0
  4  5  4  0  0  0  0
  5  6  4  0  0  0  0
  6  7  4  0  0  0  0
  3  8  4  0  0  0  0
  7  8  4  0  0  0  0
  2  9  1  0  0  0  0
  9 10  4  0  0  0  0
 10 11  4  0  0  0  0
 11 12  4  0  0  0  0
 12 13  4  0  0  0  0
  9 14  4  0  0  0  0
 13 14  4  0  0  0  0
  1 15  1  0  0  0  0
  1 16  1  0  0  0  0
  4 17  1  0  0  0  0
  5 18  1  0  0  0  0
  6 19  1  0  0  0  0
  7 20  1  0  0  0  0
  8 21  1  0  0  0  0
 10 22  1  0  0  0  0
 11 23  1  0  0  0  0
 12 24  1  0  0  0  0
 13 25  1  0  0  0  0
 14 26  1  0  0  0  0
M  END
