  8
 
 C         -0.7608612162       -0.0002121602        0.0000084356
 C          0.7608031839        0.0002650520        0.0001581717
 H         -1.1435382457        0.5735531300       -0.8410671302
 H         -1.1431306983       -1.0156089866       -0.0764552565
 H         -1.1436601014        0.4411525284        0.9174595588
 H          1.1434673827       -0.5735878264        0.8411750302
 H          1.1430764493        1.0156505133        0.0767246458
 H          1.1435988828       -0.4410255221       -0.9173393626
           8
         -7.33637067
 C         -0.7607216741        0.0000005739       -0.0000043708
 C          0.7607217005       -0.0000024808       -0.0000007181
 H         -1.1436238434        0.9006391455        0.4747831385
 H         -1.1435412277       -0.0391705837       -1.0173910010
 H         -1.1436210077       -0.8614805797        0.5425600299
 H          1.1436292551        0.8615496385       -0.5425289506
 H          1.1436464019       -0.9006295513       -0.4747413106
 H          1.1435101072        0.0391146543        1.0173787381
