 8

C      0.815000    -0.538000     0.493000
C      2.155000    -0.052000    -0.012000
H      0.000000     0.001000     0.001000
H      0.693000    -1.607000     0.291000
H      0.730000    -0.380000     1.572000
H      2.970000    -0.591000     0.480000
H      2.277000     1.017000     0.191000
H      2.240000    -0.210000    -1.091000
